13
Coordinates from ORCA-job 2-methyl_propanal_RI-B2GP-PYLP-D3BJ_def2AVTZ_optTS
  C   -1.11828725202117      0.33577769709555     -0.37846767473376
  C   0.74207370845083      0.75208523821215      0.19039915886411
  O   -1.49297215380037     -0.65681741250367      0.20109050426808
  H   -1.44388103535791      1.36260439584197     -0.09963649539286
  H   0.55019989572544      0.91434955181305      1.24561161964495
  C   1.47764345970434     -0.50484850205465     -0.13422980426479
  H   1.41552033864441     -0.72770537191306     -1.19831996170346
  H   2.53504841389676     -0.38234320198339      0.11926633703374
  H   1.08799205058340     -1.35169943752281      0.42246984546576
  C   1.08557319122206      1.97151036952228     -0.59879232849940
  H   1.00405110582181      1.77646995349330     -1.66700975041338
  H   0.45152316904018      2.81859775418238     -0.34727836685468
  H   2.12051510809020      2.26001896581691     -0.39410308341432
