10
Coordinates from ORCA-job acetone_govt_opt+freq
  C   0.53638977881095      0.65219364788871     -0.48845509229244
  O   0.87715838273454      1.68030112407911      0.05287340320255
  C   1.05397905732556     -0.72936115647307     -0.10693480532127
  H   0.45918141044239     -1.51196189425622     -0.56269507054456
  H   2.06993332425190     -0.78775242607685     -0.49387721757714
  H   1.08234138092022     -0.85550191576300      0.97625309359232
  C   -1.38433379757734      0.45832163053200      0.09728564030208
  H   -1.69675770764245     -0.30067939970311     -0.60355856015659
  H   -1.30028224023957      0.16138308833454      1.13233368074542
  H   -1.74960958902621      1.45605730143789     -0.08222507195037
