13
C4H8O
C       -0.535506000      0.174689000      0.002656000
C        1.349846000      0.544145000      0.659015000
O       -0.972888000     -0.744385000      0.646129000
H        1.562698000      1.432862000      0.077384000
H       -0.790040000      1.241274000      0.201601000
H        1.148740000      0.731266000      1.706587000
C        2.106697000     -0.693115000      0.315916000
H        2.016200000     -0.892063000     -0.751604000
H        1.672834000     -1.543096000      0.839133000
C        3.586156000     -0.552897000      0.688262000
H        4.128633000     -1.459381000      0.424937000
H        4.048840000      0.280438000      0.162046000
H        3.708791000     -0.385737000      1.756941000
