12
Coordinates from ORCA-job diacetyl_govt_opt+freq
  C   -0.81628729009701      0.44306666788296      0.24530884882588
  C   0.61073991165327     -0.01539874261737     -1.20572334540654
  O   -1.34562128132834     -0.51104677266136      0.71965247391369
  O   1.14345349012105      0.93807557171445     -1.67734433225573
  C   -1.45506645421873      1.71813148656260     -0.23725612649268
  H   -1.76830516391625      2.26617924021240      0.65018978918180
  H   -0.74828197296350      2.30819748958539     -0.80677672442716
  H   -2.33551214821805      1.49023183822244     -0.83718537933632
  C   1.24547109369492     -1.29340841282959     -0.72618889678413
  H   2.11321357133990     -1.06931300957618     -0.10668598557320
  H   0.53103412855547     -1.89332980619161     -0.17685279897207
  H   1.57842885937726     -1.82910047730414     -1.61398350467354
