16
Coordinates from ORCA-job pivaldehyde_NTI_HCO_govt_opt+freq_6
  C   -1.05559913031512      0.20065418484470     -0.41035242626463
  C   0.68769290436117      0.75530076771370      0.23357283799543
  O   -1.41230910542549     -0.78678570173326      0.19994857844907
  H   -1.48671471884546      1.20895068190355     -0.22855488716654
  C   1.52893626681318     -0.43833029445368     -0.11173733769400
  H   1.49311204944878     -0.65301481296702     -1.17732010572693
  H   2.56875711636365     -0.22798282513898      0.15651667323698
  H   1.20604229098862     -1.32095468350108      0.43312577736611
  C   0.96004426232893      1.97391585492031     -0.59564775005278
  H   0.86814978871438      1.75516209897213     -1.65756799177594
  H   0.29056642756923      2.79459473467705     -0.34545990965687
  H   1.98375859072290      2.31230650736459     -0.41181429785229
  C   0.49458100295263      0.99026647783898      1.70110882311510
  H   -0.16984622456669      1.83049715390387      1.89294353739576
  H   0.09205205663083      0.10550903562150      2.18842846007178
  H   1.46103245125848      1.21853208903363      2.16154721955975
