11
Coordinates from ORCA-job methacrolein_TD-B3LYP_S1_NTIa_TS_opt+freq
  C   -1.20122169456667      0.51203021627776     -0.38136892989128
  C   0.77579578236771      0.69215433199769     -0.14041728330246
  O   -1.41831796071758     -0.61564111361629     -0.73280343615339
  H   -1.11965553444623      0.96539811259883      0.62098588326484
  C   1.10070592747445      1.95099283581306     -0.28515491686256
  H   0.36334167104863      2.74783033941319     -0.24310796111242
  H   2.12261689431333      2.25122030985043     -0.52307530782565
  C   1.45099187878852     -0.60549032688957     -0.05345195834834
  H   1.38821950425402     -1.00826906466253      0.96091416286659
  H   0.98383171213539     -1.32895724128163     -0.72324937601573
  H   2.51250081934842     -0.50234339950094     -0.30927987661959
