14
Coordinates from ORCA-job MIPK_TD-B3LYP_S1_NTIa_TS_opt+freq
  C   -1.10947160476394      0.72530970344760     -0.31368338481890
  C   0.89771998320192      0.71523558793977     -0.07436188702969
  O   -1.29907159651420     -0.21882223860731     -1.03181045664359
  C   1.20995750566153      1.92317232352152     -0.46670898259068
  H   0.53140409929756      2.76538724477217     -0.33800944264485
  H   2.11926674162435      2.13837195582382     -1.03521907612792
  C   -1.28133975487583      1.04310783358361      1.15044654079119
  H   -2.36019741953114      1.18728528669030      1.28264091993287
  H   -0.95220757226874      0.23507675286610      1.81876180596249
  H   -0.78490675178788      1.96826294669702      1.42448585884157
  C   1.49879736982019     -0.61095144522707      0.02818277679310
  H   1.67622750970419     -0.87583594169538      1.07485922276439
  H   0.83010652210139     -1.35887459922685     -0.40624144329855
  H   2.46751296833061     -0.65851141058529     -0.48728145193144
