16
Coordinates from ORCA-job pentan-3-one_TD-B3LYP_S1_NTIa_TS_opt+freq
  C   -1.02500375645254      1.09595876858706     -0.15565817136232
  O   -1.25987049234240      0.60240032703343     -1.22667873474418
  C   1.35380373329112      2.13847254017818     -0.52433622383331
  H   2.30264977844025      2.52188849846902     -0.12880507186195
  H   1.38617572235292      2.13665464511123     -1.61261254491021
  H   0.59064078421562      2.88459600779689     -0.23499481109112
  C   1.02226036347922      0.79839828726998      0.02613501188763
  H   1.10133980252060     -0.06679329410377     -0.61776992013900
  H   1.27960080062790      0.61060144221203      1.06228777098016
  C   -1.25413208824099      0.93804922316643      1.31448779866738
  H   -0.95917228537251     -0.06418418669445      1.67474798211035
  H   -0.64927542404304      1.66846668980333      1.84651556051444
  C   -2.74279283324820      1.16835626057037      1.61293614457667
  H   -3.36354134283632      0.45777006278732      1.06665889071836
  H   -2.91748264844390      1.02622651108959      2.68195081489719
  H   -3.04417711394772      2.17733121672336      1.33209050358992
