16
Coordinates from ORCA-job pivaldehyde_TD-B3LYP_S1_NTIa_TS_opt+freq
  C   -1.00787969048539      0.35471252461603     -0.48167873433400
  O   -1.23993113698330     -0.80109075435171     -0.22021854465850
  H   -1.14270664135267      1.34876621003989     -0.07822429816340
  C   1.06496482723886      2.20501863118656     -0.17717536610306
  H   0.60915602541285      2.74318547927465      0.65657110734959
  H   2.12882383514262      2.47153135902448     -0.19720003043962
  H   0.62991750170836      2.56977380195763     -1.11258111906642
  C   0.89736041239876      0.71790245729790     -0.04094080187504
  C   1.46709525076428     -0.07613700537744     -1.18527970327320
  H   2.55083439013929      0.10436757882015     -1.24377413513838
  H   1.29851237307386     -1.14377791745057     -1.05483388276497
  H   1.04155283734650      0.22763194126628     -2.14539649893933
  C   1.12176817194852      0.14733321870730      1.32515275447061
  H   0.66963611259835      0.76895523138779      2.10001916158370
  H   0.70713418911315     -0.85968236588791      1.39665711728550
  H   2.19609754193595      0.07898260948899      1.54206197406653
