10
Coordinates from ORCA-job propanal_TD-B3LYP_S1_NTIa_TS_opt+freq
  C   -0.96861803847457      0.59084959493580     -0.79776710517812
  O   -0.57794927485352      0.03993821206805     -1.79987761745228
  H   -1.44033387374610      0.30873660782361      0.14191262149428
  C   0.95069011806200      2.15782264182311      0.02624629292652
  H   1.28153167038183      2.23316576068028     -1.00866367091973
  H   0.12060632517796      2.85400005826051      0.17711095063973
  C   0.57939137612927      0.75855673930897      0.39218228638844
  H   1.20299557205512     -0.04417662459629      0.01685411134348
  H   0.26328437163971      0.61186230729256      1.42136832517651
  H   1.76854075362830      2.50540270240340      0.67639180558117
