37

C       -2.6601040       -3.8802370        0.5393500
C       -1.3710690       -4.3028550        0.1638370
C       -0.4275150       -3.3823370       -0.2021760
C       -2.0184660       -1.6106620        0.1619590
C       -2.9824660       -2.5347290        0.5400250
H       -3.4018540       -4.6124320        0.8302060
H       -1.1085380       -5.3505990        0.1533190
H        0.5746620       -3.6299260       -0.5170740
H       -3.9644330       -2.1881450        0.8322120
C        0.0642480       -0.9609220       -0.4911030
C       -0.7394960        0.1957070       -0.4132830
C       -0.4545660        1.5637100       -0.6556160
C       -1.4021340        2.5287940       -0.2821040
C       -2.6466940        2.1182800        0.2011950
C       -3.0083190        0.7656940        0.3492650
C       -2.0197240       -0.1794100        0.0488980
H       -1.1720330        3.5744760       -0.4219710
H       -3.9903640        0.4869870        0.7025730
N       -0.7537020       -2.0571680       -0.1981710
N        0.7140090        1.9392530       -1.3367310
O        1.3751440        1.0465780       -1.9078960
O        1.0320510        3.1378000       -1.3642120
C       -3.6099860        3.1267070        0.5402800
N       -4.3869150        3.9295380        0.8157700
C        1.5384840       -1.1653070       -0.6610080
O        1.9184050       -2.0332780       -1.4189830
C        2.4592560       -0.3791680        0.1999140
C        3.8206540       -0.4063080       -0.1162680
C        2.0150410        0.3352080        1.3142930
C        4.7266500        0.2927930        0.6637150
H        4.1442490       -0.9686470       -0.9831730
C        2.9307800        1.0310830        2.0979510
H        0.9672570        0.3408720        1.5901630
C        4.2813780        1.0154150        1.7713120
H        5.7796080        0.2818390        0.4106370
H        2.5865380        1.5829180        2.9636660
H        4.9906470        1.5637400        2.3794620
