32

C        3.4335350       -0.6144440       -0.0364390
C        3.0830470       -2.0024520       -0.0928120
C        1.7901820       -2.3843170       -0.0751110
C        1.0559800       -0.0666610       -0.0026910
C        2.4001560        0.3738090        0.0281120
H        1.4551800       -3.4110180       -0.0988880
C       -0.5721430       -1.6496700       -0.0097310
C       -1.2317920       -0.4003580        0.0123330
C       -2.5959820       -0.0139570        0.0277900
C       -2.9304250        1.3531220       -0.0031850
C       -1.9233610        2.3010230       -0.0480320
C       -0.5504100        1.9637930       -0.0522860
C       -0.2197280        0.6052530       -0.0060950
H       -3.9722410        1.6347080        0.0056790
H        0.1780450        2.7520670       -0.1225320
N        0.8055430       -1.4225330       -0.0286260
N       -3.6359790       -0.9611700        0.0790060
O       -3.3310290       -2.1619550        0.1221470
O       -4.8043000       -0.5621530        0.0812940
C       -0.9888220       -2.9990170       -0.0388580
N       -1.1325900       -4.1424940       -0.0717450
C       -2.2860990        3.6883400       -0.0933420
N       -2.5662500        4.8037310       -0.1304330
C        4.7758440       -0.2082950       -0.0308130
C        5.1022080        1.1292130        0.0490840
H        5.5506270       -0.9632600       -0.0846310
H        6.1417170        1.4324210        0.0530640
C        2.7670060        1.7389990        0.1295390
C        4.0913990        2.1035450        0.1384290
H        2.0126210        2.5019640        0.2251140
H        4.3585230        3.1492630        0.2197230
H        3.8595080       -2.7535660       -0.1378190
