26

C       -1.8972010       -3.7726690       -0.0000000
C       -3.0663980       -2.9849460       -0.0000000
C       -2.9649350       -1.6212490       -0.0000000
C       -0.5617560       -1.7915680       -0.0000000
C       -0.6477880       -3.1786480       -0.0000000
H       -1.9793510       -4.8516640       -0.0000000
H       -4.0466500       -3.4381670       -0.0000000
H       -3.8107310       -0.9471870       -0.0000000
H        0.2588530       -3.7685160       -0.0000000
C       -1.4100240        0.3176720        0.0000000
C        0.0000000        0.4424460        0.0000000
C        0.8934220        1.5463140        0.0000000
C        2.2803630        1.3054730        0.0000000
C        2.7589090       -0.0022880       -0.0000000
C        1.9122200       -1.1261810       -0.0000000
C        0.5360460       -0.8714440       -0.0000000
H        2.9541720        2.1483370        0.0000000
H        2.3118210       -2.1294200       -0.0000000
N       -1.7292780       -1.0507670       -0.0000000
C       -2.4976080        1.2153570        0.0000000
N       -3.5016770        1.7825400        0.0000000
N        0.4280660        2.8716280        0.0000000
O       -0.8008740        3.0635600        0.0000000
O        1.2552190        3.7925350        0.0000000
C        4.1789880       -0.2096670       -0.0000000
N        5.3159880       -0.3853660       -0.0000000
