26

C       -2.2169780       -3.5990080       -0.0000000
C       -3.3067190       -2.7030930       -0.0000000
C       -3.0941210       -1.3552700       -0.0000000
C       -0.7315550       -1.7271520       -0.0000000
C       -0.9334580       -3.1113690       -0.0000000
H       -2.3961110       -4.6656480       -0.0000000
H       -4.3241590       -3.0676220       -0.0000000
H       -3.8811390       -0.6146030       -0.0000000
H       -0.0740550       -3.7681980       -0.0000000
C       -1.4008800        0.4596690       -0.0000000
C        0.0000000        0.4638600        0.0000000
C        1.0375180        1.4340440        0.0000000
C        2.3613550        1.0742040        0.0000000
C        2.7376500       -0.2830340        0.0000000
C        1.7694060       -1.2775180        0.0000000
C        0.4312080       -0.9062380        0.0000000
H        3.1128380        1.8517690        0.0000000
H        2.0559030       -2.3222090        0.0000000
N       -1.8129260       -0.8808870       -0.0000000
C       -2.4160770        1.4383830       -0.0000000
N       -3.3430340        2.1245030       -0.0000000
N        0.7296470        2.8598270        0.0000000
O       -0.4454740        3.1651040       -0.0000000
O        1.6454420        3.6547270        0.0000000
C        4.1273510       -0.6293330        0.0000000
N        5.2432840       -0.9093000        0.0000000
