45

C        0.2402150        4.7785950        0.1496280
C       -1.1410370        4.5659770       -0.0182340
C       -1.6216150        3.2981250       -0.2050380
C        0.6252840        2.4298300       -0.0635780
C        1.1210600        3.7109110        0.1280840
H        0.6146460        5.7829860        0.2976610
H       -1.8373130        5.3917840       -0.0089640
H       -2.6613990        3.0495830       -0.3567660
H        2.1851500        3.8510670        0.2618080
C       -1.0176050        0.8919060       -0.3738230
C        0.2133580        0.2120380       -0.4170140
C        0.5182940       -1.1573610       -0.6075620
C        1.8180820       -1.5956450       -0.3183230
C        2.8114030       -0.6659500       -0.0087070
C        2.5685620        0.7190750        0.0464500
C        1.2447820        1.1341010       -0.1464650
H        2.0618760       -2.6450290       -0.3988710
H        3.3651410        1.4136820        0.2675210
N       -0.7449980        2.2535090       -0.2257760
N       -0.4370440       -2.0111070       -1.1785270
O       -1.3763820       -1.4975620       -1.8268790
O       -0.2983230       -3.2426430       -1.0504940
C       -2.3966260        0.3633520       -0.1726910
O       -3.3789260        0.9273050       -0.5891830
O       -2.3431200       -0.7129510        0.5826440
C       -3.5294340       -1.5498310        0.8465320
C       -4.4705940       -0.7837010        1.7656940
C       -4.1945100       -1.9657320       -0.4595380
C       -2.9165850       -2.7553640        1.5433770
H       -3.9421530       -0.4631990        2.6659130
H       -4.8857610        0.0883780        1.2610000
H       -5.2913180       -1.4401400        2.0620480
H       -3.4557500       -2.4135450       -1.1248940
H       -4.9651500       -2.7041980       -0.2280760
H       -4.6621180       -1.1191830       -0.9602180
H       -3.7007040       -3.4675920        1.8054830
H       -2.1991630       -3.2411820        0.8776560
H       -2.4017050       -2.4465360        2.4550810
C        4.1799780       -1.2107700        0.2370330
O        4.4591870       -2.3829640        0.2122790
O        5.0711680       -0.2499250        0.4915650
C        6.4086810       -0.6984520        0.7393620
H        6.7913900       -1.2342570       -0.1287670
H        6.9909000        0.1992490        0.9234820
H        6.4287170       -1.3554020        1.6084750
