43

C        1.9042100        3.9870700        0.0147790
C        0.5423090        4.3239520       -0.1695160
C       -0.3813390        3.3289670       -0.3228710
C        1.3629040        1.6670010       -0.1176180
C        2.3128730        2.6578890        0.0401800
H        0.2241110        5.3554870       -0.1970730
H       -1.4354980        3.4978780       -0.4848530
H        3.3511890        2.3925940        0.1855950
C       -0.7431040        0.8713210       -0.4043420
C        0.1270780       -0.2330360       -0.4119850
C       -0.1117310       -1.6183860       -0.5663590
C        0.9250350       -2.5196100       -0.2491250
C        2.1820100       -2.0274450        0.0524310
C        2.4934930       -0.6514590        0.0743090
C        1.4374020        0.2304340       -0.1494810
H        0.7324800       -3.5807180       -0.3061160
H        3.4962290       -0.3094170        0.2906590
N        0.0264320        2.0275990       -0.2947280
N       -1.3048410       -2.0742530       -1.1481020
O       -2.0020010       -1.2602330       -1.7842540
O       -1.6023890       -3.2741710       -1.0379080
C       -2.2261890        0.9261900       -0.2296180
O       -2.8986500        1.8101290       -0.6981070
O       -2.6060370       -0.0552530        0.5546160
C       -4.0313370       -0.3429960        0.8231960
C       -4.5922730        0.7682240        1.6990200
C       -4.7984380       -0.5057940       -0.4826050
C       -3.9517690       -1.6658630        1.5695120
H       -3.9870290        0.8824360        2.6005550
H       -4.6205850        1.7150500        1.1600760
H       -5.6095660        0.5062200        1.9965990
H       -4.2947860       -1.2324560       -1.1206860
H       -5.7994480       -0.8713130       -0.2440250
H       -4.8905330        0.4388820       -1.0163680
H       -4.9557060       -1.9943130        1.8431990
H       -3.4909240       -2.4245940        0.9328790
H       -3.3569580       -1.5558560        2.4780180
C        3.2946440       -2.9818720        0.3747400
F        4.3780610       -2.7470480       -0.3824180
F        3.6916070       -2.8558270        1.6520740
F        2.9518250       -4.2603040        0.1935400
C        2.8740990        5.0269010        0.1801110
N        3.6494020        5.8660830        0.3127510
