46

C        0.1435370        4.3220190       -0.1091430
C       -0.7106070        3.2671180       -0.2007890
C        1.1474890        1.7534510       -0.0877540
C        2.0373360        2.8226240        0.0086270
H       -0.2587170        5.3248390       -0.1258640
H       -1.7789920        3.3624310       -0.2990760
H        3.0978390        2.6256830        0.0893740
C       -0.9105570        0.7838920       -0.2391860
C        0.0455360       -0.2459830       -0.2259230
C        0.0158590       -1.6610090       -0.3153950
C        1.1520810       -2.4063840       -0.1608160
C        2.4059450       -1.7840740        0.0265040
C        2.5061640       -0.4084830        0.0265110
C        1.3365230        0.3477900       -0.0971290
H        1.1027190       -3.4857910       -0.2260920
H        3.4732410        0.0680050        0.1271330
N       -0.2161880        1.9837000       -0.1868240
N       -1.1852370       -2.3872740       -0.7384750
O       -1.8623700       -1.8835750       -1.6075670
O       -1.3952190       -3.4726880       -0.2388200
C       -2.3698470        0.7548430       -0.0896120
O       -3.0908490        1.6969180       -0.3390680
O       -2.7700960       -0.4084180        0.4087190
C       -4.2010750       -0.7315190        0.5350400
C       -4.8206100        0.1511760        1.6116110
C       -4.8989900       -0.5913210       -0.8134340
C       -4.1798690       -2.1891740        0.9712240
H       -4.2638890        0.0500190        2.5457140
H       -4.8288040        1.1966420        1.3080960
H       -5.8487560       -0.1723630        1.7871370
H       -4.3436000       -1.1438540       -1.5737370
H       -5.8989500       -1.0227800       -0.7322300
H       -4.9903350        0.4501470       -1.1151800
H       -5.1987380       -2.5235270        1.1740900
H       -3.7515660       -2.8151060        0.1868620
H       -3.5840470       -2.3052140        1.8787560
C        3.5938550       -2.6679210        0.1699750
O        3.5393700       -3.8717990        0.1602000
O        4.7260290       -1.9787620        0.3120750
C        5.9155150       -2.7656590        0.4567220
H        6.0578740       -3.3933100       -0.4222960
H        6.7284020       -2.0530250        0.5557000
H        5.8429500       -3.3931960        1.3443310
C        2.4315660        5.2261710        0.0862360
N        3.1422090        6.1275430        0.1583400
C        1.5406420        4.1073120       -0.0029890
