53

C       -3.4672890       -2.1548260       -0.0255490
C       -2.4675060       -3.1791910       -0.1795930
C       -1.1585760       -2.8614780       -0.3168820
C       -1.6907180       -0.5215810       -0.1609360
C       -3.0287190       -0.8104940       -0.0146790
H       -2.7365290       -4.2234780       -0.1984330
H       -0.3759670       -3.5931790       -0.4505970
H       -3.7168550        0.0114500        0.1146870
C        0.5151330       -1.0185440       -0.4125960
C        0.3853630        0.3892040       -0.4224290
C        1.3449960        1.4190340       -0.5671330
C        0.9615190        2.7347960       -0.2785640
C       -0.3801280        3.0279060       -0.0087880
C       -1.3800200        2.0477690       -0.0024560
C       -0.9653340        0.7164100       -0.1960470
H        1.6912280        3.5296910       -0.3293160
H       -2.4122100        2.3079000        0.1792530
N       -0.7602320       -1.5503080       -0.3143890
N        2.6123740        1.1260490       -1.0968030
O        2.7449510        0.0859380       -1.7786090
O        3.5448620        1.9314560       -0.9099790
C        1.7122580       -1.8671430       -0.1934870
O        1.8019940       -2.9999870       -0.6065000
O        2.5710280       -1.2320940        0.5826830
C        3.9177390       -1.7597360        0.8568880
C        3.7932420       -2.9788210        1.7612050
C        4.6514040       -2.0682450       -0.4426200
C        4.5759620       -0.5924160        1.5780760
H        3.2201080       -2.7277980        2.6562630
H        3.3062030       -3.8028980        1.2408240
H        4.7911710       -3.2987760        2.0684100
H        4.6198660       -1.1976550       -1.0984580
H        5.6909380       -2.3008390       -0.2014270
H        4.2127240       -2.9218060       -0.9573540
H        5.6003420       -0.8547900        1.8481200
H        4.5899160        0.2841460        0.9261110
H        4.0233870       -0.3479490        2.4873410
C       -0.7116700        4.4602370        0.2401870
O        0.0968660        5.3547850        0.2613260
O       -2.0190540        4.6554700        0.4420130
C       -2.4095830        6.0106080        0.6864850
H       -2.1459020        6.6377120       -0.1648560
H       -3.4863070        5.9866270        0.8251780
H       -1.9154310        6.3892360        1.5808970
N       -4.7625470       -2.4748440        0.1049880
C       -5.7615400       -1.4216310        0.2471860
H       -5.5795730       -0.8343520        1.1507880
H       -5.7462720       -0.7559020       -0.6191970
H       -6.7447240       -1.8756190        0.3195300
C       -5.1888250       -3.8715680        0.1049090
H       -4.9372900       -4.3559000       -0.8414010
H       -4.7215610       -4.4212320        0.9249330
H       -6.2658590       -3.9071580        0.2355950
