28

C       -3.1890540       -2.8379230       -0.0051870
C       -4.1586250       -1.8061990        0.0057260
C       -3.7761350       -0.4997170        0.0079890
C       -1.4660040       -1.1704910       -0.0105340
C       -1.8563640       -2.5187320       -0.0133110
H       -3.5046810       -3.8724680       -0.0069790
H       -5.2143680       -2.0381140        0.0123970
H       -4.4610410        0.3369040        0.0159370
H       -1.0887900       -3.2814470       -0.0213980
C       -1.8571650        1.0675950        0.0015560
C       -0.4606030        0.8803030       -0.0099730
C        0.6180710        1.8125290       -0.0140370
C        1.8941180        1.2907490       -0.0081150
C        2.1246630       -0.1084800       -0.0003600
C        1.1055550       -1.0242500       -0.0080480
C       -0.2072740       -0.5140050       -0.0151350
H        2.7428270        1.9660420       -0.0108900
H        1.3014620       -2.0879570       -0.0061880
N       -2.4419220       -0.1890160       -0.0003860
C       -2.6374000        2.2340550        0.0219070
N       -3.2833720        3.1927060        0.0307980
N        0.3579140        3.1705500        0.0494710
C        3.5498190       -0.5603370        0.0078060
F        3.6718420       -1.8941390        0.0055760
F        4.2277600       -0.1040160       -1.0615440
F        4.2143340       -0.1085630        1.0869870
H        1.1482330        3.7641300       -0.1595680
H       -0.4790220        3.4831310       -0.4233710
