25

C        3.6017660       -2.2341780       -0.0000000
C        4.2753910       -0.9923720       -0.0000000
C        3.5538900        0.1676760       -0.0000000
C        1.4944770       -1.1028620       -0.0000000
C        2.2198080       -2.2893880       -0.0000000
H        4.1757010       -3.1515700       -0.0000000
H        5.3543510       -0.9436260       -0.0000000
H        3.9857550        1.1588980       -0.0000000
H        1.6942280       -3.2348240       -0.0000000
C        1.2999660        1.1589360       -0.0000000
C        0.0000000        0.6310050       -0.0000000
C       -1.2759770        1.2472120        0.0000000
C       -2.4243260        0.4334810        0.0000000
C       -2.2840290       -0.9551590        0.0000000
C       -1.0361920       -1.6083290        0.0000000
C        0.0993590       -0.7842200        0.0000000
H       -3.3988710        0.8970770        0.0000000
H       -0.9714260       -2.6866140        0.0000000
N        2.1922270        0.1037050       -0.0000000
N       -1.4030400        2.6476330        0.0000000
O       -0.3724720        3.3451900       -0.0000000
O       -2.5418910        3.1368240        0.0000000
C       -3.4753860       -1.7556770        0.0000000
N       -4.4260910       -2.4043510        0.0000000
H        1.6410110        2.1788850       -0.0000000
