25

C        3.7007540       -2.0789750        0.0000000
C        4.3064770       -0.7989940        0.0000000
C        3.5415460        0.3273100        0.0000000
C        1.5528690       -1.0194020        0.0000000
C        2.3338530       -2.1845410        0.0000000
H        4.3186740       -2.9666590        0.0000000
H        5.3827020       -0.6970370        0.0000000
H        3.9360560        1.3332770        0.0000000
H        1.8389540       -3.1469560        0.0000000
C        1.2556700        1.2485870        0.0000000
C        0.0000000        0.6754820        0.0000000
C       -1.3366100        1.1650460        0.0000000
C       -2.4104220        0.3169450        0.0000000
C       -2.2131000       -1.0841420        0.0000000
C       -0.9308280       -1.6224700        0.0000000
C        0.1585720       -0.7600690        0.0000000
H       -3.4100460        0.7295990        0.0000000
H       -0.7935610       -2.6972880        0.0000000
N        2.1755360        0.2177410        0.0000000
N       -1.5845810        2.5981460        0.0000000
O       -0.6108240        3.3284100        0.0000000
O       -2.7334150        2.9954970        0.0000000
C       -3.3518890       -1.9503680        0.0000000
N       -4.2677490       -2.6481070        0.0000000
H        1.5773410        2.2728970        0.0000000
