9
Coordinates from ORCA-job methylglyoxal_T1_min_opt+freq
  C   0.96973780974859     -0.03394293605582     -0.07771345864802
  C   2.47126220778934      0.03481611525230     -0.00526109381267
  O   3.09063164334134      0.74883023297602      0.75596348665825
  C   3.18829359489348     -0.84275647423341     -0.94169250933683
  O   2.60560521485864     -1.61290452324373     -1.76286062501641
  H   0.54110608304755      0.64620825868327      0.65004935172928
  H   0.63870523199988     -1.05259261968186      0.12083412635478
  H   0.63798624830781      0.23259966863802     -1.08048834285802
  H   4.27587196601338     -0.83062772233479     -0.92986093507035
