16
Coordinates from ORCA-job pentan-3-one_T1_min_opt+freq_2
  O   1.13319265127311     -0.94501526812406     -0.40554666122947
  C   2.13503053013188     -0.16312773029695     -0.06582434452107
  C   2.84830926115883     -0.61675045787037      1.19105224061555
  C   1.92715071811741     -0.77214648688172      2.39307000915584
  C   2.98480543709343      0.26618896937246     -1.24389015203886
  C   2.19320647635198      0.94860596403160     -2.35078247909985
  H   3.61920575952286      0.12533927114119      1.39408621461802
  H   3.35857993982480     -1.56643975767213      0.98736785908272
  H   1.41076471832180      0.16146453617900      2.60628841479514
  H   2.49711763308709     -1.05731341838275      3.27535732522238
  H   1.17588453106104     -1.53845704649704      2.21551747328746
  H   3.50580597713063     -0.61195170928732     -1.64538843369152
  H   3.74519037326325      0.93808427211904     -0.84819293713025
  H   1.45562428858542      0.27371004326765     -2.77932344418174
  H   2.85742502799528      1.27280457388331     -3.14973156062164
  H   1.66776862608119      1.82082174901809     -1.96750779326272
