19
Coordinates for Co[(H2O)6]2+ LS, Optimized Geometries (gas-phase) using TPSSh-D3BJ/DKH-def2-TZVP(-f)
Co 0.00000198597283 -0.00000168869806 -0.00000291759585
O 0.10570602977565 0.13003327871258 2.16432259709527
H 0.65531589599151 -0.47633239599632 2.68415734391494
H -0.52030305828267 0.53162109216001 2.78549317172080
O -1.50841933515304 -1.31505279409197 0.03083372695845
H -1.70030510518873 -1.89374964678968 0.78526054727292
H -1.74621713411819 -1.79060156173741 -0.78130206837920
O 1.40987980822062 -1.41275414305516 0.11116762990531
H 1.30630968304702 -2.33585631621326 -0.16692192909790
H 2.33661075980398 -1.16267393942993 -0.03368183204159
O -0.10571099719768 -0.13003217769358 -2.16432474250136
H -0.65532468770995 0.47633213472269 -2.68415715195671
H 0.52029884563483 -0.53161425238310 -2.78549825265886
O 1.50842158646992 1.31505077294427 -0.03083323582620
H 1.70030715765480 1.89375221026655 -0.78525668389502
H 1.74621136648746 1.79059909987352 0.78130534929569
O -1.40987561691265 1.41275204587822 -0.11116849769839
H -1.30630124321576 2.33585452530520 0.16691854393016
H -2.33660594127996 1.16267375622542 0.03368840155754
