19
Coordinates for Cr[(H2O)6]3+ HS, Optimized Geometries (gas-phase) using TPSSh-D3BJ/DKH-def2-TZVP(-f)
Cr 0.00000298647146 -0.00000072382398 0.00000027558049
O -0.00000123072248 1.99440608897255 0.00000055508535
H 0.79083347035687 2.56884909297594 -0.00000637412161
H -0.79083860015963 2.56884601989900 -0.00001069621177
O 0.00000028343732 -0.00000250797968 1.99440710868143
H -0.00001480213051 0.79083322346280 2.56884890467496
H 0.00000496170077 -0.79083915684854 2.56884769044366
O 1.99440920894877 0.00000198210223 0.00000204265978
H 2.56884924307643 -0.00001138842638 0.79083895550682
H 2.56885128274535 0.00000107590212 -0.79083340829069
O 0.00000290712864 -1.99440763514845 0.00000153785789
H -0.79083290573238 -2.56884920017451 -0.00000250793873
H 0.79083900195493 -2.56884918054110 0.00000180136721
O 0.00000253171472 0.00000150687861 -1.99440598248235
H -0.00000322704006 -0.79083423047714 -2.56884796296838
H -0.00001457677780 0.79083861287870 -2.56884629471818
O -1.99440292231800 0.00000095411912 0.00000135101755
H -2.56884411424592 0.00000605392009 -0.79083505594336
H -2.56884349840848 0.00000941230864 0.79083805979991
