19
Coordinates for Cr[(H2O)6]2+ HS, Optimized Geometries (gas-phase) using TPSSh-D3BJ/DKH-def2-TZVP(-f)
Cr -0.00000660420513 -0.00000289940821 -0.00000591952562
O -0.00000635836411 2.37605621111605 -0.00000298603779
H 0.77037722775233 2.96460099908822 0.00001781185342
H -0.77038941186300 2.96460167270548 0.00003647178759
O 0.00000350979300 -0.00000049013233 2.07254790950011
H 0.00001858609778 0.78532900352931 2.64135566187213
H 0.00001790758557 -0.78532902766188 2.64135644755293
O 2.07456154950192 0.00001038675277 -0.00000256512126
H 2.64664656705892 0.00001584835632 0.78213139337328
H 2.64664999089820 0.00001402652258 -0.78213394785768
O -0.00000549566388 -2.37606867958818 0.00000748452543
H -0.77038787878272 -2.96461510320245 0.00002331052724
H 0.77037762240491 -2.96461412943593 -0.00001399652102
O -0.00000282774662 -0.00001162052404 -2.07256012058421
H 0.00001956754085 -0.78534265717568 -2.64136545312543
H 0.00002282006845 0.78531485580138 -2.64137144015368
O -2.07457425478291 0.00000762618964 -0.00000630702847
H -2.64666034618380 0.00001145553200 -0.78213941730812
H -2.64666217110974 0.00002252153494 0.78212566227115
