19
Coordinates for Fe[(H2O)6]3+ HS, Optimized Geometries (gas-phase) using TPSSh-D3BJ/DKH-def2-TZVP(-f)
Fe -0.00000342470488 0.00000051769151 -0.00000067326372
O 0.00000159781185 2.04005238772406 -0.00000401102227
H 0.78749651234292 2.62036508921003 0.00002008540737
H -0.78749033284747 2.62036848465307 0.00001746837218
O -0.00000389629000 0.00000210206943 2.04005156838242
H 0.00002271942736 0.78749607578680 2.62036551950278
H 0.00000709814992 -0.78749059903851 2.62036684003382
O 2.04004848513794 -0.00000498198836 -0.00000172678779
H 2.62036321234443 0.00002880004297 0.78749162801966
H 2.62036229965086 0.00000918335605 -0.78749557837114
O -0.00000980100119 -2.04005106989079 0.00000604870812
H -0.78750490112060 -2.62036330143379 -0.00000738634542
H 0.78748199747887 -2.62036745318714 -0.00001205441983
O -0.00000290288941 -0.00000779494677 -2.04005283621915
H 0.00000067621932 -0.78750386347048 -2.62036374935343
H 0.00002442051345 0.78748284952865 -2.62037092106548
O -2.04005505166172 0.00000667753367 -0.00000295240177
H -2.62036842523388 -0.00002234798656 -0.78749704704516
H -2.62037028332776 -0.00000075565383 0.78748977786882
