19
Coordinates for Fe[(H2O)6]2+ HS, Optimized Geometries (gas-phase) using TPSSh-D3BJ/DKH-def2-TZVP(-f)
Fe -0.00000261218413 -0.00000393572142 0.00000821917535
O 0.00002318563910 0.00001951602791 1.99575795150990
H 0.71316011934033 -0.33328387491991 2.55963385730297
H -0.71315256755767 0.33323244311705 2.55963872428269
O -0.60508168618916 -1.90173924863750 0.00001626581694
H -1.01236961104845 -2.30423387576971 0.78280898219578
H -1.01233734921603 -2.30424535792514 -0.78278769058453
O 1.84876102367937 -0.75362849144381 -0.00001186161139
H 2.01571647226951 -1.70815590017221 -0.00001057568133
H 2.69776010402886 -0.28922271719437 0.00001186592425
O -0.00002181612956 -0.00002675775460 -1.99574729647131
H -0.71315097070954 0.33328917053346 -2.55962573747915
H 0.71315002581921 -0.33324702725148 -2.55962872095053
O 0.60508795389505 1.90172933725864 -0.00000984658224
H 1.01235362687233 2.30423427470621 -0.78280952984954
H 1.01232304264737 2.30425374547388 0.78279614902898
O -1.84875703902712 0.75363223743009 0.00004245689967
H -2.01570133222736 1.70816168673122 -0.00002032698652
H -2.69776056990212 0.28923477551169 -0.00006288593997
