19
Coordinates for Fe[(H2O)6]2+ HS, Optimized Geometries (gas-phase) using TPSSh-D3BJ/DKH-def2-TZVP(-f)
Fe 0.00000107871209 0.00000705577111 0.00001300956672
O 0.00000258038789 0.00000615245991 2.14763922480153
H 0.62472674774217 -0.46393698861910 2.72518498358199
H -0.62472779302988 0.46393836543157 2.72518698793781
O -0.79872477620098 -1.95662671413731 0.00000046849958
H -1.06094969676239 -2.46880244058686 0.78035812333166
H -1.06094209526609 -2.46879295374956 -0.78036590025231
O 1.99389726488496 -0.78196791700478 0.00000510747787
H 2.23519198472451 -1.72049220832623 -0.00001118328077
H 2.81994281191633 -0.27527450011962 -0.00002684883394
O 0.00000565692300 0.00000679967252 -2.14761990101923
H -0.62472743473318 0.46393347905080 -2.72516936245085
H 0.62472701669570 -0.46393933912185 -2.72516640568854
O 0.79872688169283 1.95663629112332 0.00000283442021
H 1.06094658166844 2.46880117275830 -0.78036356705721
H 1.06095745050209 2.46880735749582 0.78036152685118
O -1.99390287646160 0.78195986750466 0.00000173603872
H -2.23520962423354 1.72048101134077 -0.00001252639827
H -2.81994175916237 0.27525550905653 -0.00001830752616
