13
Coordinates from ORCA-job 2-methylpropananal_TD-CAM-B3LYP_S1_NTIa_TS_opt+freq
  C   -1.04363836591732      0.72865064575218     -0.09492281119223
  O   -1.36039219361963      0.45040776541075     -1.21728497432987
  H   -0.83353222762160      0.19704587594033      0.83497511685856
  C   1.11242887272770      2.17439385929983     -0.32731732188563
  H   0.52896958505002      2.78639630605697      0.36255945028553
  H   2.16430319527113      2.45736666659005     -0.19211097111778
  H   0.81877202235350      2.42614459247063     -1.34574655483881
  C   0.94995638700757      0.71487132035810     -0.05539658775444
  H   1.21593542255007      0.43573216313933      0.96181330847932
  C   1.38775201885473     -0.25634157538639     -1.09496161349737
  H   2.45777378748299     -0.14154616277633     -1.29981044250726
  H   1.22128640141460     -1.28631010765680     -0.78091155185183
  H   0.84952309444622     -0.09061934919865     -2.02767804664820
