11
Coordinates from ORCA-job crotonaldehyde_TD-CAM-B3LYP_S1_NTIa_TS_opt+freq
  C   -0.66392613998508     -0.10754944511783      0.05316606998795
  C   1.19616195635349      0.23183632910357      0.98830685964053
  O   -1.44188517278374     -0.32276105285907      0.91482816581635
  H   -0.23802523153508      0.87572783821524     -0.27213592970968
  H   1.06707782448092      0.54127382049251      2.01479884922914
  C   2.17285162222077     -0.16063999227984      0.22689971805509
  H   1.94515851218342     -0.41252405122357     -0.81021220474050
  C   3.60355254379110     -0.34770265251300      0.64819555264914
  H   3.89795708668917     -1.39170175456589      0.52790182764555
  H   4.26163429408204      0.25173078093634      0.01730077766080
  H   3.75744170450299     -0.05968982018846      1.68595131376563
