12
Coordinates from ORCA-job diacetyl_TD-CAM-B3LYP_S1_NTIa_TS_opt+freq_2
  C   -0.87034392496490      0.45443083597849     -0.26048038515561
  C   0.27986356542885     -0.09656400303103     -0.87049331124135
  O   -1.95381481184080      0.21766252250809     -0.90668166209397
  O   0.05577156837802     -0.70281826406972     -1.93949404718790
  C   -1.00167576907026      1.24016086259499      1.00007544505116
  H   -0.02763368419067      1.62511586181657      1.29438199699309
  H   -1.69073985846144      2.07274029129636      0.86055378611383
  H   -1.39433760784113      0.61131822544528      1.80283696862226
  C   1.66208866221497      0.03818402285225     -0.30792003903264
  H   2.08693705913634      1.01278430081653     -0.55943608598679
  H   1.68312879421973     -0.07146618464689      0.77625218150481
  H   2.28673179499130     -0.73089563956091     -0.75725438358689
