4
Coordinates from ORCA-job formaldehdye_TD-CAM-B3LYP_S1_NTIb_TS_opt+freq
  H   -0.66989731430113      0.04056005718567      0.07782787963151
  O   1.38370726123441     -0.13435069920478     -0.06711446985421
  C   0.32467647477907      0.20689590920901     -0.43142118731795
  H   -0.10192442171235      1.43472673281010      0.68952177754066
