11
Coordinates from ORCA-job MVK_TD-CAM-B3LYP_S1_NTIa_TS_opt+freq
  C   -1.20839317895612      0.70187736735183     -0.29540835904360
  C   0.87437641680416      0.76088963122286      0.03777135599302
  O   -1.23978859959910     -0.18014198218817     -1.08388788805494
  H   1.34593043510045     -0.17720859786229      0.29101023807789
  C   1.24113085979277      1.90330715314122     -0.44666931289113
  H   0.49959544514289      2.68777153764689     -0.62987841335315
  H   2.25948862640395      2.14470469880505     -0.74846965830529
  C   -1.30163443733083      1.02278221882399      1.17042469921449
  H   -2.38248303847020      1.08251961047487      1.34563754555526
  H   -0.87521290967232      0.28083068358683      1.85518704405850
  H   -0.88541944621564      2.00133313899692      1.37861285974894
