10
Coordinates from ORCA-job acetone_T1_min_govt_opt+freq
  C   0.41759539116229     -0.96927782079292     -0.02733318142045
  C   1.90005464408976     -1.22511163347583     -0.07456121041942
  O   2.53244124937197     -0.77638203593587      0.99724762660835
  C   2.64355645814019     -0.94960651200215     -1.35342965045829
  H   -0.00796332670134     -1.30666859068502      0.91420473965445
  H   -0.05872179169650     -1.51354820979918     -0.83889154050954
  H   0.19490103043405      0.09699085645593     -0.14180185817152
  H   2.16203469281046     -1.49159096175187     -2.16343931878243
  H   3.67770041950513     -1.27656229231755     -1.28328545883242
  H   2.63708210288398      0.11892147330445     -1.59420709066872
