8
Coordinates from ORCA-job acrolein_T1_min_govt_opt+freq
  C   0.31773025440451      0.49570434574855     -0.58864189703244
  O   0.33627753428868     -0.58430056718058      0.15544144995983
  H   0.31285805771522      1.39979391232767      0.01348800667802
  C   0.30627076546361      0.50209292438002     -1.97281295185195
  C   0.31249080726391     -0.60928969249734     -2.77473299382647
  H   0.32769847750192     -1.60517571693526     -2.36108307496482
  H   0.30232989154926     -0.51077308304072     -3.84682495272351
  H   0.29132726581289      1.48599728119767     -2.41777421423865
