13
Coordinates from ORCA-job butanone_T1_min_govt_opt+freq
  C   0.50268154404061     -0.85930665295917     -0.12473132614178
  C   1.99352700261432     -1.10920371569330     -0.13635358459790
  O   2.63550089178698     -0.52944641346570      0.86033462739646
  C   2.72549754835651     -0.98156941807220     -1.44768344572606
  C   -0.16889372887240     -1.22220772379152      1.19246387321658
  H   0.08249644422383     -1.44531516499617     -0.94113615579641
  H   0.31655836035679      0.19688920620695     -0.35878620139872
  H   2.24125276198556     -1.61984101128165     -2.18213043727428
  H   3.76330539472652     -1.28892908180663     -1.34867310439228
  H   2.70743449461871      0.05138235772831     -1.81116324431946
  H   0.00525066669606     -2.26729488646297      1.43985402450069
  H   0.21699670681857     -0.61523933490790      2.00855563151994
  H   -1.24306991635206     -1.05898464949806      1.13089656001321
