14
Coordinates from ORCA-job MIPK_T1_min_govt_opt+freq
  C   1.04629456084227      0.11280981300731      0.01549897754509
  C   2.55622890532659      0.04761531557174     -0.00618165797270
  O   3.22345556184082      0.93306313982861      0.51231013384277
  C   3.21269065880064     -1.07918310867799     -0.65004071899204
  C   4.66820940362852     -1.11449387246787     -0.65605654132411
  H   0.75037519825179      1.01765231882112      0.53523053012819
  H   0.62333342090099     -0.75123773251315      0.52651865423479
  H   0.63923126393427      0.12785324541141     -0.99478893766733
  H   5.21450943543679     -1.50722007279338      0.18887134952387
  H   5.22991273722536     -0.58257384983704     -1.40983051983103
  C   2.47444537320298     -2.19622942510104     -1.30375083022052
  H   2.76175499383151     -2.27483273307182     -2.35489516876363
  H   2.74755216490117     -3.14925847332972     -0.84472795980357
  H   1.39664111187625     -2.08410904084816     -1.24895962169979
