11
Coordinates from ORCA-job MVK_T1_min_govt_opt+freq
  C   1.06421597187516     -0.01177613537443      0.07049706690567
  C   2.56073548014165     -0.03286530193001     -0.02597694305177
  O   3.10606290291319      1.06312922751756      0.45960662281594
  C   3.32448822945821     -1.05870611417196     -0.55350803885335
  C   4.69574011952308     -1.07497652945632     -0.63990712472934
  H   0.73964652513737      0.07578186516763      1.10701066536100
  H   0.67931398243319     -0.93797829074160     -0.34530016873287
  H   0.64792118026400      0.82815081314878     -0.48481700924027
  H   2.75640530636228     -1.90239197687267     -0.91871166152556
  H   5.29554565977059     -0.25153953665253     -0.28619063590532
  H   5.20657600812128     -1.92064114363445     -1.06798588404414
