16
Coordinates from ORCA-job pentan-2-one_T1_min_opt+freq
  O   2.02350027981766      0.16252027296622      1.25397249520193
  C   2.20201782396670      0.10032055372234     -0.05412859522141
  C   2.39555142012824      1.44682039270226     -0.69629342399017
  C   3.04989735568470     -1.07085308763235     -0.50318751041343
  C   4.56434354939907     -0.86225831717740     -0.39426217158591
  C   5.05873099814637     -0.69358294752851      1.03414841783314
  H   1.58367749221416      2.12131526187034     -0.43484289733507
  H   2.40620162990763      1.31960460890166     -1.77637668591081
  H   3.33611860239218      1.91650191657462     -0.39089599724380
  H   2.78089657474610     -1.26192635193363     -1.54299354575335
  H   2.75891101212880     -1.95346214497451      0.06717354348943
  H   4.85440312159211      0.00189995657460     -0.99374154067970
  H   5.05170792566007     -1.72626250914602     -0.85045071694197
  H   4.62361633628665      0.18452547049619      1.50564716975931
  H   6.14226893285862     -0.59062971577718      1.06183390882371
  H   4.78941694507094     -1.55713335963863      1.64193754996809
