13
Coordinates from ORCA-job S0_min_butanone
  C   0.49040327649977     -1.01033814259123     -0.16322013587764
  C   1.99954390778719     -0.83191769553156     -0.11386975851942
  O   2.59269698882619     -0.67127701234088      0.92818901828544
  C   2.72639628377314     -0.88549180694184     -1.44172220693363
  C   -0.15947537839200     -1.20211810078266      1.20112147391618
  H   0.26825074849025     -1.84857704210282     -0.83333646432582
  H   0.08241969964773     -0.12960335811722     -0.67533009540469
  H   2.21374807989864     -0.29213468720115     -2.20193577634052
  H   2.73918816342721     -1.91918873664179     -1.80058549649585
  H   3.75071516975824     -0.53841694383054     -1.32160944048938
  H   0.27508801331227     -2.05669947535601      1.72057877224188
  H   -0.00516180396368     -0.32770735619857      1.83305212418256
  H   -1.23262111006495     -1.37357816336372      1.09762741276089
