13
Coordinates from ORCA-job S0_min_butanal
  C   1.08074429310222      0.55431327250336     -0.00439644272665
  O   2.28056180767237      0.65705903307189     -0.00316033754524
  H   0.43997491806296      1.46366583073445     -0.00761388398216
  C   0.32143779879452     -0.74650308464617      0.00274415188961
  C   1.18657528277053     -2.00093706780412      0.01113959261002
  H   -0.35262032931309     -0.71721314504536      0.87065710840820
  H   -0.35114694787046     -0.72771626399029     -0.86659920416491
  H   1.84740355074854     -1.97058462995762      0.88136392706591
  C   0.36792687652970     -3.29003834783982      0.02113522641285
  H   1.84638212771175     -1.98318715862643     -0.86018760827845
  H   -0.27557988677803     -3.34975267414748      0.90335331797782
  H   -0.27686798452273     -3.36270511011659     -0.85913820930801
  H   1.02063849309173     -4.16526065413584      0.02716236164099
