8
Coordinates from ORCA-job glycoaldehyde_GS_govt_opt+freq
  O   -0.02596170861578      0.02698098348656     -0.56611553315007
  C   -0.28197720424803     -0.06107962523774      0.60229710753001
  H   -0.55051530354237      0.82884783671383      1.20454786150779
  C   -0.28033043146755     -1.33286814701378      1.40223481547504
  H   -1.28113633901376     -1.42630515255994      1.84397786286262
  H   0.41800447317528     -1.17805787327845      2.23520479037088
  O   0.06388036597080     -2.42593648297739      0.60094181917754
  H   0.05434339274141     -3.21740727713310      1.14354053122618
