9
Coordinates from ORCA-job S0_min_methylglyoxal
  C   0.94684415230002     -0.01820325019801     -0.05825117144467
  C   2.44558845302542      0.02462893682428     -0.02127698761128
  O   3.10329992282415      0.72882795365129      0.70861177523217
  C   3.21207511748357     -0.89302373761411     -0.98889246283620
  O   2.68106817264705     -1.62948960246652     -1.77470655443077
  H   0.53443010961214      0.65888347392673      0.68524654744116
  H   0.59312053247263     -1.03671028145392      0.12126244495288
  H   0.59114010552462      0.25862063344640     -1.05458383808456
  H   4.31163343411037     -0.80390412611612     -0.88843975321872
