11
Coordinates from ORCA-job S0_min_methacrolein
  C   0.40181780801423      0.42726436394691     -0.55700289729659
  O   0.46558887330120     -0.59792361900758      0.07736059613999
  H   0.40809348097253      1.40781142627230     -0.03424711879894
  C   0.30988998966208      0.52054251834196     -2.04472958471528
  C   0.22874622603763     -0.60398761950469     -2.75727230728398
  H   0.22891376138909     -1.56381485631395     -2.25610897191600
  H   0.15661980296681     -0.59606649380864     -3.83823141986799
  C   0.31892969710149      1.90510288158777     -2.62677748886894
  H   1.28402602488562      2.39383280714023     -2.45713676826646
  H   0.13018275467540      1.88931412211946     -3.70040938493318
  H   -0.43876816600607      2.53798598122621     -2.15728416219265
