14
Coordinates from ORCA-job S0_min_MIPK
  C   1.07837481217077      0.00239280548326      0.12811459727366
  C   2.58911050326056     -0.05547170000239      0.19978006295700
  O   3.20550003156923      0.69071278874597      0.93097485583096
  C   3.29444308249459     -1.06178168015686     -0.67780340620680
  C   4.61745375993852     -0.95977688393431     -0.80362260550840
  H   0.71506781582630      0.78511062044786      0.78894807400957
  H   0.63663662204179     -0.95347261183024      0.42197718533524
  H   0.74619872284161      0.20391726551241     -0.89405262547304
  H   5.15688624906049     -0.18161203880878     -0.27941723760357
  H   5.18301569687244     -1.64209309515858     -1.42712757268917
  C   2.49046090692001     -2.12146469304628     -1.38118193259836
  H   3.14159077924557     -2.78055877617070     -1.95675573512221
  H   1.93046442654570     -2.73949259902598     -0.67272899325628
  H   1.75943138121240     -1.68655387805535     -2.06790697794862
