57
Coordinates of the first excited singlet state (S1) optimized geometry of N966
Ir 0.00001100 -0.00000800 -0.37968600
O -1.29259900 0.67848000 -2.04368100
N 0.79184900 1.88803000 -0.31378500
N 0.86239300 3.91598500 0.59167200
N -0.79182200 -1.88806700 -0.31378200
N -0.86234200 -3.91600900 0.59167100
C 1.74806600 2.61069100 -0.97886800
H 2.33212900 2.18323400 -1.78749900
C 1.80869800 3.86471500 -0.42848500
H 2.44043000 4.71665500 -0.65780400
C 0.23698500 2.68731100 0.64054700
C -0.86519000 2.15594200 1.38567400
C -1.21341000 0.80332600 0.98689800
C -2.31315800 0.19073800 1.59974300
H -2.58762100 -0.82465900 1.30880200
C -3.07126800 0.85437600 2.57713000
H -3.93549500 0.36319200 3.02929500
C -2.70601800 2.15031800 2.97641600
H -3.28200000 2.66363800 3.75072000
C -1.61312900 2.79640000 2.40079200
C 1.21338600 -0.80331800 0.98692100
C 2.31311900 -0.19071300 1.59980400
H 2.58756900 0.82469000 1.30887300
C 3.07120200 -0.85434100 2.57720000
H 3.93540200 -0.36313900 3.02939800
C 2.70598200 -2.15029800 2.97646900
H 3.28196000 -2.66361000 3.75078100
C 1.61312200 -2.79639600 2.40080600
H 1.34965500 -3.79660400 2.74558400
C 0.86519900 -2.15593400 1.38569400
C -0.23696900 -2.68733200 0.64054400
C -1.80863500 -3.86476500 -0.42848700
H -2.44035000 -4.71671900 -0.65780400
C -1.74802100 -2.61073900 -0.97887400
C -0.60726300 -5.06602500 1.43408700
H -0.77329000 -4.82507900 2.49627100
H -1.29720900 -5.87063300 1.14767200
H 0.42538200 -5.43058900 1.31168900
C -2.21165800 1.19109900 -4.14786800
H -2.27732800 2.27193200 -3.94090700
H -2.05331300 1.03940900 -5.22456100
H -3.17885900 0.75300600 -3.85370200
C -1.10776000 0.58969700 -3.29892300
C -0.00002300 0.00000600 -3.94147000
H -0.00003000 0.00001400 -5.03116300
H -1.34964600 3.79659600 2.74559500
C 0.60732800 5.06600400 1.43407700
H 1.29728900 5.87060200 1.14766400
H -0.42531100 5.43059000 1.31167500
H 0.77334100 4.82506700 2.49626700
H -2.33208200 -2.18328800 -1.78750900
C 1.10772700 -0.58968400 -3.29894900
C 2.21161600 -1.19107100 -4.14791800
H 2.05324000 -1.03938800 -5.22460800
H 3.17881500 -0.75295600 -3.85378000
H 2.27731400 -2.27190200 -3.94095500
O 1.29258900 -0.67848100 -2.04371000