13
Coordinates from ORCA-job 2-methyl_propanal_CAM-B3LYP_S1_min_opt+freq
  C   1.20991726531455      0.31391380025289      0.00260496493921
  O   2.11347000740898      0.49786744231323     -0.88551109472097
  H   0.69451673626613      1.21629299937012      0.34978945987478
  C   0.39343980790109     -0.97347545667746     -0.04794483158396
  C   1.30435864092536     -2.19506788187529     -0.03217496702479
  C   -0.60568926735551     -0.98738344815377      1.09751186759433
  H   -0.15415160863449     -0.96707860758105     -1.00153183677245
  H   1.86812172549345     -2.23973160790547      0.90082689301852
  H   0.70735879700025     -3.10445594490484     -0.11685518383028
  H   2.01391079230100     -2.17150949717503     -0.85723950080167
  H   -0.09233273903056     -0.99216494630228      2.05940623244819
  H   -1.26677383459574     -0.12086882554895      1.06435573412414
  H   -1.22457632299455     -1.88359802581209      1.03884226273497
