7
Coordinates from ORCA-job acetaldehyde_CAM-B3LYP_S1_min_opt+freq
  C   1.09244515740227      0.13322311733901     -0.06284968619569
  O   2.24411793446730      0.15843397505816      0.51156112465178
  H   0.55919283770591      1.08777188361600     -0.08425197683822
  C   0.30133748345875     -1.14214175773244      0.02512266387352
  H   0.87294472130184     -1.97506542728051     -0.38502482504028
  H   0.04850265757759     -1.38704559630258      1.06435255003587
  H   -0.61669400591366     -1.02329540169765     -0.54538898848700
