4
Coordinates from ORCA-job formaldehyde_CAM-B3LYP_S1_min_opt+freq
  C   1.02342399131362     -0.09768720885328      0.06727935213070
  O   2.30004040626710     -0.15340551389425     -0.02836734749782
  H   0.53570181779623     -0.76097119722938      0.78512573344649
  H   0.53672278462306      0.84901032497692     -0.18117325807936
