6
Coordinates from ORCA-job glyoxal_CAM-B3LYP_S1_min_opt+freq
  C   -3.25005204539824     -0.26749353910153      1.14896916694274
  O   -4.25499014623639     -0.26756591714894      1.83680350390353
  H   -2.23919462399561     -0.26754391787321      1.58186600243352
  C   -3.24174393542876     -0.26751153893610     -0.33365752428068
  O   -2.23680782756523     -0.26756290699182     -1.02149149808221
  H   -4.25260005337577     -0.26753916794841     -0.76655641691689
