11
Coordinates from ORCA-job MVK_CAM-B3LYP_S1_min_opt+freq
  C   1.06628242773641     -0.01527227215902      0.07106489022403
  C   2.57114108639087     -0.01153600686540     -0.01804743390948
  O   3.09913276418164      1.05224063215734      0.46179980284650
  C   3.32888216612799     -1.05712110914740     -0.56276619463608
  C   4.68545733157777     -1.07400185980085     -0.64012083863081
  H   0.74365079867013      0.09237350661291      1.10809174969693
  H   0.70357274608292     -0.95853837492828     -0.33023392163540
  H   0.64747391629389      0.81563286364024     -0.49927925694884
  H   2.74331383430614     -1.88843796215773     -0.93311830161540
  H   5.28949897698931     -0.25878307566414     -0.27252288230048
  H   5.19824531764294     -1.92036946468766     -1.07015072409099
