10
Coordinates from ORCA-job propanal_CAM-B3LYP_S1_min_opt+freq
  C   1.31518657894456      0.16990034212923     -0.00678445161050
  O   2.28547618307114      0.28324337847795     -0.84069788223951
  H   0.80088950285310      1.10046194118438      0.25609291169372
  C   0.49818520157019     -1.10412410564304     -0.04060454193700
  H   1.18278183545348     -1.95094270118473      0.03984318530773
  C   -0.53212965723462     -1.13213480185040      1.07525388489214
  H   0.01061115138541     -1.19213649147791     -1.02083833970179
  H   -0.05578459748613     -1.06647997119393      2.05266143987738
  H   -1.23586006804949     -0.30391657898697      0.98377853369343
  H   -1.10182613050762     -2.06066101145460      1.03473526002440
