33
Cartesian atomic coordinates (Angstrom) for the ground state geometry of compound 2 (conformer syn-syn) optimized at the PBE0/6-31+G(d) level in gas-phase
C -3.200234 -3.091929 -0.510503
N -1.969940 -2.716138 -0.270197
N -1.797841 -1.408566 -0.060870
C -2.798333 -0.445636 -0.124713
C -4.111047 -0.877511 -0.385824
C -4.316728 -2.219005 -0.571283
C -2.190901 0.802483 0.093316
C -0.819593 0.564150 0.271119
C -0.575482 -0.801900 0.178611
C 0.657978 -1.546380 0.476536
O 0.637382 -2.672211 0.950828
C -2.909666 2.070718 0.123193
O -4.110254 2.193288 -0.041034
C 1.959444 -0.852649 0.228549
C 3.057323 -1.229111 1.010896
C 4.303689 -0.651619 0.812424
C 4.457776 0.298513 -0.196742
C 3.386885 0.671635 -1.003901
C 2.138860 0.096736 -0.782887
Cl 6.014986 1.021663 -0.456404
O -2.089039 3.111406 0.354415
C -2.722588 4.388328 0.401439
H -3.313985 -4.159882 -0.673641
H -5.304530 -2.619991 -0.773590
H -4.900978 -0.135785 -0.431541
H -0.074543 1.316354 0.491351
H 2.915295 -1.985461 1.777630
H 5.153117 -0.933072 1.427085
H 3.531448 1.398098 -1.797532
H 1.307318 0.373133 -1.425128
H -1.923542 5.102708 0.601409
H -3.207800 4.611606 -0.552670
H -3.471102 4.416145 1.197912