114
Coordinate of the optimized geometric structure for Ag(dbp)(P2-nCB) at the the BP 86 /def2-SVP//def2/J level, S0
C                 -4.30318600    0.12770200   -2.94109400 
C                 -5.04826900   -1.01470300   -3.27328200 
C                 -4.61459400   -2.28536200   -2.85026600 
C                 -3.44693300   -2.41459300   -2.08697600 
C                 -2.70592000   -1.26621800   -1.73632100 
C                 -3.13074600   -0.00017900   -2.17732200 
C                  1.11253600   -4.49791400   -3.37485700 
C                  0.86609100   -4.82099800   -2.03228300 
C                  0.16951700   -3.92954100   -1.19591000 
C                 -0.28227300   -2.69542100   -1.69784500 
C                 -0.03353100   -2.37626800   -3.05537800 
C                  0.65213200   -3.27042200   -3.88742900 
C                  2.30182400   -0.90383600    1.93202400 
C                  2.58643000   -2.14381500    2.53806800 
C                  3.91505200   -2.59419400    2.63005000 
C                  4.97134700   -1.80912900    2.14160500 
C                  4.69505200   -0.56433600    1.54823100 
C                  3.37052300   -0.12175600    1.43305600 
C                  0.40736200    2.47134900    2.78362200 
C                  0.74008700    1.13818400    3.08973900 
C                  1.17343600    0.80740000    4.39042200 
C                  1.23935700    1.79948900    5.37832000 
C                  0.88377700    3.12684000    5.07550700 
C                  0.47298400    3.46357500    3.77567300 
B                 -2.25061200   -3.40936500    1.37568500 
B                 -3.40031100   -3.01994000    2.65279800 
B                 -2.49571300   -2.25253400    4.02656600 
C                 -0.77328900   -1.21428000    2.17403900 
C                 -1.64055900   -1.85300900    0.96567800 
B                 -3.49981600   -1.26754400    2.93503200 
B                 -0.63426400   -2.89859100    1.91659500 
B                 -3.24674900   -1.94129200    1.27610300 
B                 -1.76351300   -3.61536700    3.08515000 
B                 -0.79436100   -2.22095300    3.54749900 
B                 -1.79974600   -0.73109600    3.38694300 
Ag                 0.12431500    0.64147300   -0.49526600 
P                  0.64260500   -0.11717600    1.75400000 
P                 -1.16175600   -1.37704000   -0.75231000 
C                  2.40320900    5.01385100   -3.04055500 
C                  1.29895400    5.66663000   -2.54061000 
C                  2.59376000    3.60528600   -2.82016900 
C                  1.61550300    2.87120400   -2.07960600 
N                  1.74436200    1.54267500   -1.83302800 
C                  2.80771900    0.85426100   -2.28141000 
C                  3.82746000    1.51453400   -3.01953200 
C                  3.71892200    2.87579700   -3.28854300 
C                  0.45246000    3.55965900   -1.55044300 
C                  0.30173600    4.96170400   -1.77999000 
C                 -0.84782400    5.58233700   -1.22046900 
C                 -1.75325700    4.82715700   -0.48423800 
C                 -1.53193800    3.43468600   -0.29490700 
N                 -0.45397700    2.83990900   -0.83407700 
H                 -4.62946900    1.12179300   -3.28345700 
H                 -5.96782300   -0.91838700   -3.87076400 
H                 -5.19694800   -3.18179500   -3.11235600 
H                 -3.11146700   -3.40521500   -1.74661500 
H                 -2.52625300    0.88458600   -1.92399200 
H                  1.65761500   -5.19991200   -4.02409500 
H                  1.21315400   -5.78180100   -1.62238200 
H                 -0.02394600   -4.20236500   -0.15329000 
H                 -0.39009100   -1.41475600   -3.45974400 
H                  0.83080600   -3.00771100   -4.94162700 
H                  1.77336500   -2.75455200    2.94706300 
H                  4.12246700   -3.56748600    3.10042300 
H                  6.00948900   -2.16493100    2.22409900 
H                  5.51650100    0.06298000    1.16928800 
H                  3.15343700    0.84852600    0.95622200 
H                  0.11115400    2.72518400    1.75555000 
H                  1.44914300   -0.23017600    4.62871200 
H                  1.56786600    1.53524100    6.39509900 
H                  0.93618200    3.90169600    5.85574400 
H                  0.20904000    4.50351300    3.52872100 
H                  3.16330800    5.56392900   -3.61634000 
H                  1.16332600    6.74556500   -2.71177900 
H                 -2.64352800    5.29499700   -0.03980200 
H                 -4.40427800   -3.66832500    2.84859800 
H                 -2.79529500   -2.40866300    5.18918700 
H                  0.16348600   -2.22164100    4.28426800 
H                 -1.55029400   -4.70817600    3.55753600 
H                 -2.29886700   -4.29467900    0.55198100 
H                 -4.51018200   -0.75333600    3.36168100 
H                 -4.06546100   -1.85585600    0.39660200 
H                 -1.54196800    0.20993100    4.09571100 
H                 -2.76374200   -0.34366500    2.43753500 
H                  0.39496200   -3.35309400    1.50172600 
C                  2.82172300   -0.61887300   -1.97347000 
C                 -2.47729200    2.57607400    0.50381900 
H                  4.50134400    3.39784700   -3.86115200 
H                 -1.00721800    6.66152600   -1.37010600 
H                  2.17145600   -1.13088300   -2.71894900 
H                  2.28261700   -0.75351200   -1.00996200 
C                  4.17571700   -1.32595700   -1.90533900 
H                 -2.42310000    2.86862100    1.57641300 
H                 -2.09584200    1.53320000    0.45769300 
C                 -3.94168000    2.60760800    0.03167000 
H                  4.87653600   -0.73405600   -1.27641600 
H                  4.63791200   -1.39061200   -2.91635000 
C                  4.02871600   -2.73199800   -1.31077000 
H                 -3.97397900    2.50859400   -1.07548100 
H                 -4.40045000    3.59530300    0.26255300 
C                 -4.76470500    1.48173200    0.66654900 
H                  3.30786900   -3.31392000   -1.92509100 
H                  3.56025800   -2.64091500   -0.30685100 
C                  5.35360100   -3.48548000   -1.19336900 
H                 -4.71625200    1.56703500    1.77379800 
H                 -4.28738900    0.50758200    0.42782700 
C                 -6.22091600    1.45591400    0.20252700 
H                  6.07367800   -2.92968700   -0.55678000 
H                  5.83100700   -3.63298100   -2.18550400 
H                  5.21188400   -4.48623100   -0.73765000 
H                 -6.28684100    1.30914500   -0.89633300 
H                 -6.74965200    2.40181500    0.44784600 
H                 -6.77511700    0.62438900    0.68137600 
H                  4.69451600    0.94127000   -3.37571400 
