114
Coordinate of the optimized geometric structure for Ag(dbp)(P2-nCB) at the the BP 86 /def2-SVP//def2/J level, S1
C                 -4.45959800   -0.11193800   -2.79780300 
C                 -5.14878700   -1.29686300   -3.10206700 
C                 -4.60610400   -2.54156200   -2.73236000 
C                 -3.38394800   -2.60262900   -2.04894900 
C                 -2.70427000   -1.41172900   -1.71717400 
C                 -3.23773200   -0.16917800   -2.10821100 
C                  1.07270500   -4.67849700   -3.34647400 
C                  0.77669600   -4.98737700   -2.01072100 
C                  0.11096000   -4.05782600   -1.19229600 
C                 -0.25330600   -2.79752800   -1.70064900 
C                  0.05392500   -2.49112200   -3.04876800 
C                  0.69978100   -3.42619700   -3.86664400 
C                  2.30103100   -0.88061100    1.90731500 
C                  2.60631300   -2.07013500    2.59839900 
C                  3.93467100   -2.52152800    2.67732600 
C                  4.97524500   -1.78151900    2.09373000 
C                  4.68140200   -0.58510800    1.41812600 
C                  3.35479900   -0.14736800    1.30872300 
C                  0.26376500    2.46339800    2.78182600 
C                  0.70767200    1.15500500    3.06004300 
C                  1.20060900    0.84024300    4.34338400 
C                  1.20485000    1.81678000    5.34923000 
C                  0.73035500    3.11350500    5.07825900 
C                  0.26875500    3.43841500    3.79223400 
B                 -2.18477000   -3.39816900    1.36980700 
B                 -3.34386600   -3.02110800    2.66790100 
B                 -2.43879000   -2.29191800    4.04064000 
C                 -0.72942500   -1.23522800    2.11691800 
C                 -1.53589700   -1.89357400    0.93357100 
B                 -3.48032100   -1.29408900    3.00580600 
B                 -0.56189300   -2.90688000    1.88824700 
B                 -3.17465400   -1.92564500    1.30145900 
B                 -1.71162000   -3.61922600    3.07578900 
B                 -0.74990300   -2.18901000    3.49408500 
B                 -1.79735100   -0.73293400    3.37442000 
Ag                 0.07353800    0.68061400   -0.65571500 
P                  0.67449500   -0.04391900    1.66994100 
P                 -1.09345800   -1.40228200   -0.83378900 
C                  2.53538700    5.11916900   -2.83202300 
C                  1.43513800    5.77162700   -2.32842300 
C                  2.69856600    3.69290900   -2.68616800 
C                  1.66962900    2.94878100   -2.00468900 
N                  1.78454700    1.58497400   -1.84109300 
C                  2.85587800    0.91850400   -2.31440200 
C                  3.90366300    1.58494200   -2.97863800 
C                  3.81642100    2.98447400   -3.16619800 
C                  0.52425300    3.62712700   -1.48151900 
C                  0.39842900    5.05778100   -1.63115400 
C                 -0.73168400    5.68343500   -1.07127500 
C                 -1.69399400    4.92250800   -0.38401400 
C                 -1.51312000    3.51993000   -0.27977600 
N                 -0.45289600    2.90357600   -0.81699000 
H                 -4.86683800    0.86225000   -3.10770200 
H                 -6.10649500   -1.25368600   -3.64271600 
H                 -5.13818400   -3.47143400   -2.98464200 
H                 -2.95340800   -3.57566100   -1.77067700 
H                 -2.67545400    0.75020000   -1.88149100 
H                  1.59384100   -5.40967200   -3.98258000 
H                  1.06050900   -5.96531900   -1.59328700 
H                 -0.12173100   -4.32969400   -0.15822300 
H                 -0.22052100   -1.50400100   -3.45513100 
H                  0.92569500   -3.16979600   -4.91274800 
H                  1.81505000   -2.65003800    3.08624700 
H                  4.15571300   -3.45829800    3.21128800 
H                  6.01413300   -2.13722200    2.16426800 
H                  5.48717600    0.00612700    0.95796500 
H                  3.12512000    0.77360900    0.74844600 
H                 -0.06195400    2.71654400    1.76278400 
H                  1.58478300   -0.16879800    4.55220200 
H                  1.58607300    1.56747300    6.35130600 
H                  0.73719400    3.87734200    5.87087800 
H                 -0.07735700    4.45824000    3.56592400 
H                  3.32255600    5.68153400   -3.35880100 
H                  1.33088000    6.86186400   -2.44587700 
H                 -2.57121400    5.39783400    0.07575900 
H                 -4.35220700   -3.67471000    2.80044900 
H                 -2.68840200   -2.46065100    5.20886800 
H                  0.16211400   -2.09184700    4.27320500 
H                 -1.50768300   -4.70965700    3.54907900 
H                 -2.35433700   -4.24156100    0.52641500 
H                 -4.51227700   -0.78644200    3.36472400 
H                 -3.96895500   -1.57668900    0.47278100 
H                 -1.51953900    0.23415100    4.03105600 
H                 -2.77031300   -0.30372400    2.52810600 
H                  0.46528600   -3.36737000    1.48662500 
C                  2.82860400   -0.57815900   -2.10386400 
C                 -2.50647900    2.65891900    0.47021300 
H                  4.61901200    3.53080000   -3.68520500 
H                 -0.84542300    6.77460800   -1.16860400 
H                  2.22505100   -1.03278600   -2.91975800 
H                  2.23187600   -0.76213200   -1.18448400 
C                  4.16192000   -1.31907500   -1.99298200 
H                 -2.51802700    2.95795800    1.54226300 
H                 -2.11986400    1.61546000    0.44406300 
C                 -3.94225200    2.68669500   -0.07323000 
H                  4.85315600   -0.75051000   -1.33415900 
H                  4.66321000   -1.37778600   -2.98496300 
C                  3.96520500   -2.73111500   -1.42596800 
H                 -3.92478200    2.51786300   -1.17219500 
H                 -4.38502600    3.69754400    0.06539100 
C                 -4.82646200    1.63054900    0.59842900 
H                  3.24150100   -3.28445900   -2.06380900 
H                  3.47771900   -2.64503500   -0.42971400 
C                  5.26448400   -3.52647900   -1.29284800 
H                 -4.81731600    1.79393600    1.69924700 
H                 -4.36528800    0.63194000    0.43989800 
C                 -6.26740000    1.60992500    0.08665100 
H                  5.98333400   -3.00775000   -0.62405700 
H                  5.76434200   -3.65973800   -2.27582100 
H                  5.08496500   -4.53544900   -0.86868500 
H                 -6.30086500    1.38909400   -1.00053500 
H                 -6.76976000    2.58757200    0.24406400 
H                 -6.87038300    0.83460400    0.60072800 
H                  4.76907500    1.01991300   -3.34918900 
