114
Coordinate of the optimized geometric structure for Ag(dbp)(P2-nCB) at the BP86/def2-SVP//def2-ECP with accounting for relativistic effects the Def2-ECP pseudopotential for Ag, S1
C                 -4.48419900   -0.13673300   -2.78494000 
C                 -5.16684900   -1.32639500   -3.08558700 
C                 -4.61280000   -2.56745800   -2.72073400 
C                 -3.38588500   -2.62030300   -2.04522200 
C                 -2.71316900   -1.42478900   -1.71616100 
C                 -3.25762700   -0.18565500   -2.10324500 
C                  1.07342600   -4.68139200   -3.34252300 
C                  0.76458100   -4.99287600   -2.01027300 
C                  0.09774500   -4.06189600   -1.19445000 
C                 -0.25368100   -2.79734600   -1.70145300 
C                  0.06572600   -2.48869000   -3.04604000 
C                  0.71217300   -3.42534300   -3.86176300 
C                  2.30412600   -0.87745400    1.88918600 
C                  2.61069700   -2.07410400    2.56695200 
C                  3.94062100   -2.52076600    2.64735600 
C                  4.98094700   -1.76895900    2.07882300 
C                  4.68536000   -0.56578600    1.41589500 
C                  3.35754800   -0.13253800    1.30465900 
C                  0.25652400    2.45941500    2.77507100 
C                  0.71291500    1.15423500    3.04817200 
C                  1.21877800    0.84195700    4.32707600 
C                  1.22324200    1.81740200    5.33395600 
C                  0.73628700    3.11061700    5.06837900 
C                  0.26187900    3.43331300    3.78647400 
B                 -2.18653700   -3.39669400    1.37001000 
B                 -3.34037300   -3.01754000    2.67199200 
B                 -2.42836400   -2.29015100    4.04155800 
C                 -0.72371900   -1.23645900    2.11147700 
C                 -1.53595800   -1.89381300    0.93114900 
B                 -3.47219700   -1.29050900    3.01081600 
B                 -0.56091900   -2.90901000    1.88252500 
B                 -3.17277500   -1.92211600    1.30487700 
B                 -1.70771600   -3.61859300    3.07432100 
B                 -0.74109900   -2.19008100    3.48897700 
B                 -1.78660900   -0.73261300    3.37222100 
Ag                 0.06480300    0.68121500   -0.66872400 
P                  0.67539900   -0.04402600    1.65741300 
P                 -1.09968800   -1.40333200   -0.83796100 
C                  2.55394300    5.12348600   -2.80743600 
C                  1.44969000    5.77587400   -2.31279300 
C                  2.71385600    3.69655500   -2.66436900 
C                  1.67678700    2.95195800   -1.99566500 
N                  1.78736900    1.58719500   -1.83643600 
C                  2.86307800    0.92103900   -2.30028700 
C                  3.91905200    1.58785000   -2.95071100 
C                  3.83565300    2.98823400   -3.13495400 
C                  0.52830300    3.63036900   -1.47999400 
C                  0.40546700    5.06157000   -1.62704100 
C                 -0.72884500    5.68723400   -1.07612400 
C                 -1.69762100    4.92578600   -0.39819000 
C                 -1.51842500    3.52325900   -0.29399000 
N                 -0.45478500    2.90638800   -0.82433500 
H                 -4.90044600    0.83462500   -3.09166000 
H                 -6.12852000   -1.28967500   -3.61964500 
H                 -5.13971700   -3.50093800   -2.97055600 
H                 -2.94659900   -3.59048000   -1.77071200 
H                 -2.70106400    0.73765400   -1.87830300 
H                  1.59550400   -5.41365400   -3.97662000 
H                  1.03873700   -5.97398600   -1.59377500 
H                 -0.14558500   -4.33608300   -0.16350700 
H                 -0.20006100   -1.49874900   -3.45129800 
H                  0.94797000   -3.16727800   -4.90525300 
H                  1.81956100   -2.66317400    3.04369200 
H                  4.16287200   -3.46302000    3.17107100 
H                  6.02103000   -2.12079600    2.15097700 
H                  5.49092200    0.03451500    0.96730200 
H                  3.12679100    0.79439000    0.75478100 
H                 -0.07998200    2.71102900    1.75915400 
H                  1.61250500   -0.16432100    4.53162100 
H                  1.61400500    1.56993900    6.33282600 
H                  0.74338100    3.87350700    5.86190100 
H                 -0.09421000    4.45057300    3.56410400 
H                  3.34710100    5.68636900   -3.32460800 
H                  1.34778900    6.86653400   -2.42844900 
H                 -2.57803500    5.40115700    0.05539100 
H                 -4.34921000   -3.66944300    2.80851900 
H                 -2.67499700   -2.45826800    5.21047800 
H                  0.17450100   -2.09531900    4.26429900 
H                 -1.50413400   -4.70951900    3.54656900 
H                 -2.36108800   -4.24027400    0.52787200 
H                 -4.50178200   -0.78063600    3.37317300 
H                 -3.96904700   -1.56800500    0.48017500 
H                 -1.50569900    0.23437300    4.02753900 
H                 -2.76206200   -0.30203900    2.52971900 
H                  0.46281800   -3.37306000    1.47670200 
C                  2.83092000   -0.57599100   -2.09417300 
C                 -2.51520800    2.66269200    0.45230300 
H                  4.64440400    3.53504300   -3.64377100 
H                 -0.84065900    6.77870300   -1.17218900 
H                  2.22675600   -1.02593300   -2.91209000 
H                  2.23226300   -0.76039700   -1.17612700 
C                  4.16084300   -1.32289600   -1.98351500 
H                 -2.52534800    2.95885300    1.52522100 
H                 -2.13076200    1.61868500    0.42363000 
C                 -3.95204600    2.69483800   -0.08815200 
H                  4.85539000   -0.75719300   -1.32576600 
H                  4.66088000   -1.38538400   -2.97589900 
C                  3.95689800   -2.73279900   -1.41372500 
H                 -3.93810800    2.52704000   -1.18743200 
H                 -4.39186100    3.70661600    0.05280000 
C                 -4.83754600    1.64049300    0.58522500 
H                  3.22787000   -3.28283400   -2.04842900 
H                  3.47272400   -2.64137500   -0.41639800 
C                  5.25127700   -3.53631200   -1.28238300 
H                 -4.81983400    1.79928200    1.68665400 
H                 -4.38312700    0.63992600    0.41953100 
C                 -6.28245400    1.63015200    0.08421500 
H                  5.97556200   -3.02042500   -0.61727600 
H                  5.74720900   -3.67567100   -2.26649100 
H                  5.06640400   -4.54288100   -0.85475900 
H                 -6.32593000    1.41658800   -1.00408500 
H                 -6.77871200    2.60923600    0.25169500 
H                 -6.88537200    0.85460600    0.59805300 
H                  4.78765000    1.02266100   -3.31350000
