33
Cartesian atomic coordinates (Angstrom) in the Sn (LE) excited state of 2 optimized at the PBE0/6-31+G(d) level in gas-phase
C -0.524460 -0.571794 -0.019319
N -1.660368 -1.353062 -0.059155
C -2.807651 -0.578236 -0.043779
C -2.365391 0.767013 0.016217
C -0.962735 0.762610 0.038868
C -4.034672 -1.256430 -0.074730
C -4.016959 -2.652772 -0.104310
C -2.778766 -3.324058 -0.095658
N -1.619410 -2.686405 -0.074437
H -2.711307 -4.407669 -0.104557
H -4.933123 -3.232482 -0.127017
H -4.949796 -0.675551 -0.068830
C -3.265868 1.912065 0.061882
H -0.343435 1.641678 0.130280
C 0.708825 -1.259085 0.009549
C 2.028986 -0.654979 -0.011444
O 0.661387 -2.545024 0.092264
C 3.133951 -1.416646 0.421791
C 4.412681 -0.882959 0.422787
C 4.612278 0.423053 -0.021275
C 3.540791 1.187701 -0.482397
C 2.263252 0.650735 -0.484307
H 2.975741 -2.429134 0.779748
H 5.254527 -1.473806 0.770355
Cl 6.209738 1.100817 -0.016355
H 3.712126 2.192744 -0.855416
H 1.453899 1.236923 -0.903903
O -4.482978 1.836261 0.043419
O -2.599689 3.080676 0.128662
C -3.420703 4.245679 0.181503
H -2.728731 5.086763 0.233473
H -4.044669 4.315183 -0.713608
H -4.063444 4.221057 1.065612