10
Coordinates from ORCA-job crotonaldehyde_H_loss_radical_opt+freq
  H   -1.20549422841321     -1.02608906838348      0.41575885454939
  C   -1.10421405795594     -0.09429373624914     -0.13174594292376
  O   1.28601387658219     -0.15342735230291     -0.20606571766964
  C   0.24706876465464      0.35898607917832     -0.45740497603943
  C   -2.16165358873874      0.62822820439779     -0.50457693671275
  H   -1.97414453794562      1.54656705412677     -1.04815935853976
  C   -3.57791851855074      0.27144183567109     -0.23226667955120
  H   -4.06358441810478      1.05995387944923      0.34315688539731
  H   -4.13221021092251      0.18014145459841     -1.16669930784123
  H   -3.66117408060530     -0.66306535048610      0.31605917933106
