91
 
C  -1.69356    -1.4117    -5.55246
H  -2.58093    -1.75153   -5.01241
H  -1.94232    -1.47704   -6.61746
C  -1.44912    0.0777407  -5.26206
C  -1.61409    0.381718   -3.80364
N  -2.17824    -0.310769  -2.88635
C  -2.05303    0.453135   -1.73926
C  -2.40977    0.220809   -0.431294
C  -2.11613    1.19836    0.527525
C  -1.47225    2.38898    0.141816
C  -1.1071     2.63329    -1.18192
C  -1.40592    1.64096    -2.07708
O  -1.14605    1.5958     -3.39379
H  -0.601489   3.54318    -1.4775
S  -1.0281     3.66051    1.24554
C  -1.62312    3.12043    2.78274
C  -2.25627    1.89495    2.98987
C  -2.66863    1.57397    4.28869
C  -2.44579    2.42697    5.34556
C  -1.80523    3.64404    5.12378
C  -1.40032    3.99174    3.85393
H  -0.906446   4.94022    3.68197
H  -1.62556    4.32417    5.94585
H  -2.76803    2.15439    6.34091
H  -3.17247    0.631311   4.44758
C  -2.50605    0.900603   1.92136
O  -3.0385     -0.158252  2.19507
H  -2.8983     -0.695423  -0.13294
C  -0.0550137  0.490439   -5.76829
H  0.191755    1.50451    -5.44935
H  -0.100705   0.518839   -6.86262
C  1.07614     -0.476986  -5.38554
C  1.17763     -0.538163  -3.86048
O  1.74927     0.352272   -3.23644
N  0.593503    -1.5729    -3.24985
C  -0.209854   -2.6195    -3.8367
C  -0.529753   -2.39065   -5.31248
C  0.739836    -1.85098   -5.95887
H  0.616932    -1.77046   -7.04506
H  1.56813     -2.54884   -5.79281
C  -0.92095    -3.73364   -5.92545
H  -1.15651    -3.62834   -6.98576
H  -1.79912    -4.15586   -5.43248
H  -0.110616   -4.45947   -5.83768
H  -1.13126    -2.71077   -3.25736
H  0.325726    -3.57054   -3.7374
H  0.642037    -1.58769   -2.22757
C  2.39229     0.0363661  -5.96062
H  3.2184      -0.632979  -5.71721
H  2.6394      1.02338    -5.57473
H  2.32592     0.0989829  -7.04856
C  -2.51607    0.910024   -5.99685
H  -2.44917    0.734325   -7.07149
H  -3.52038    0.63475    -5.67258
H  -2.38422    1.97889    -5.82596
N  1.3239      0.423204   -0.190765
C  0.818874    -0.711502  0.306646
O  0.534719    -1.68193   -0.387016
C  0.616558    -0.790148  1.78753
C  0.932161    0.205124   2.5761
C  1.25119     1.16267    3.39449
C  2.58534     1.33659    4.08387
C  3.6069      0.317697   3.59235
H  3.77427     0.403193   2.51716
H  4.56505     0.468258   4.09277
H  3.27837     -0.701105  3.79879
C  2.34586     1.15498    5.58651
H  1.61071     1.8706     5.96032
H  1.97438     0.152999   5.80422
H  3.27216     1.307      6.14468
C  3.0852      2.75696    3.80627
H  2.36076     3.50506    4.13457
H  3.26605     2.91373    2.74156
H  4.021       2.94743    4.33543
H  0.486916    1.89279    3.65043
C  0.0355682   -2.08444   2.31412
C  0.145067    -2.19987   3.80627
C  1.2949      -2.7216    4.39071
C  1.42496     -2.79069   5.76951
C  0.401119    -2.33424   6.58748
C  -0.75126    -1.81694   6.01477
C  -0.877635   -1.75334   4.63502
H  -1.78121    -1.3578    4.18859
H  -1.55836    -1.46593   6.64512
H  0.498957    -2.38828   7.6639
H  2.32487     -3.20464   6.20602
H  2.09745     -3.08036   3.75632
H  0.547845    -2.91758   1.82917
H  -1.00969    -2.15051   2.00034
H  1.51862     1.20526    0.408342
H  1.5179      0.49981    -1.18544
