97
Cartesian coordinates of the optimized transition state (triplet) TS(T) of mer,cis-[tris(trimethylphosphine)ethynyl-2,5-bis(p-carbomethoxy-phenylethynyl)-cyclohexa[1',2':3,4]rhodacyclopenta-2,4-diene] (1c-H) lying between T1 and the geometry of S1 in triplet state.
C          1.27083        0.74310        0.02718
C          0.70090        2.09262        0.03374
C         -0.66893        2.16277        0.06712
C         -1.37819        0.88970        0.05089
Rh        -0.16451       -0.77314        0.03557
P         -0.35265       -0.71820       -2.32517
P          1.43713       -2.60074        0.01351
P         -0.35002       -0.72700        2.38762
C         -1.71414        0.33447       -2.98983
H         -1.54750        1.37880       -2.71062
H         -1.74195        0.24725       -4.08296
H         -2.66845        0.01195       -2.56481
C          1.11434       -0.10575       -3.29848
H          1.46772       -0.87387       -3.99471
H          0.83082        0.78025       -3.87668
H          1.92762        0.16857       -2.62196
C         -0.77253       -2.32844       -3.13490
H         -0.93061       -2.18368       -4.21030
H          0.02123       -3.06743       -2.99076
H         -1.68465       -2.71215       -2.66798
C          2.59998       -2.70524       -1.42959
H          3.30264       -3.53599       -1.29122
H          2.05504       -2.86665       -2.36393
H          3.15986       -1.76868       -1.50762
C          0.74106       -4.31375        0.04512
H          0.04978       -4.44484       -0.79240
H          1.54215       -5.06147       -0.00739
H          0.15875       -4.45868        0.95986
C          2.69105       -2.68863        1.37982
H          2.20982       -2.83831        2.35009
H          3.38300       -3.52155        1.20571
H          3.25441       -1.75109        1.40747
C          1.03846        0.06181        3.31767
H          1.12053        1.10655        3.00079
H          0.85755        0.02184        4.39864
H          1.98612       -0.43160        3.08586
C         -0.57912       -2.35780        3.23041
H          0.29507       -3.00313        3.11165
H         -0.76217       -2.20879        4.30115
H         -1.44092       -2.85159        2.77058
C         -1.81040        0.17721        3.05907
H         -1.84822        0.05494        4.14855
H         -1.74246        1.24045        2.81326
H         -2.72266       -0.22299        2.60760
C          1.57332        3.32203        0.01279
H          2.05549        3.43464        0.99725
H          2.39786        3.17032       -0.69648
C         -1.41764        3.47200        0.10176
H         -1.88759        3.63913       -0.88066
H         -2.25441        3.39541        0.80885
C         -0.51464        4.65693        0.45472
H         -1.04176        5.59926        0.25704
H         -0.28800        4.63912        1.53072
C          0.79347        4.59283       -0.33306
H          1.41117        5.47747       -0.13104
H          0.56604        4.60246       -1.40896
C          2.63331        0.62061        0.01350
C          3.87997        0.50696       -0.00518
C         -2.74376        0.85328        0.03823
C         -3.98904        0.79645        0.02022
C          5.28435        0.47192       -0.02217
C          6.03578        1.68164       -0.01027
C          6.00415       -0.75605       -0.05181
C          7.42242        1.66084       -0.02633
H          5.50034        2.62847        0.01329
C          7.39019       -0.76804       -0.06800
H          5.45186       -1.69343       -0.06297
C          8.11938        0.43644       -0.05531
H          7.98194        2.59288       -0.01645
H          7.94112       -1.70595       -0.09106
C         -5.38666        0.65131       -0.00566
C         -6.25070        1.77932       -0.00376
C         -5.97020       -0.64560       -0.03612
C         -7.62907        1.61683       -0.03165
H         -5.81452        2.77593        0.01905
C         -7.34792       -0.79790       -0.06402
H         -5.30902       -1.50950       -0.03739
C         -8.19461        0.32741       -0.06237
H         -8.28202        2.48597       -0.03020
H         -7.80094       -1.78679       -0.08794
C          9.59717        0.35936       -0.07336
O         10.23654       -0.67662       -0.09861
O         10.17993        1.57780       -0.05860
C         -9.65753        0.09927       -0.09397
O        -10.18705       -0.99656       -0.12093
O        -10.36384        1.25097       -0.09019
C        -11.77976        1.08529       -0.12022
H        -12.09038        0.55302       -1.02566
H        -12.12471        0.52296        0.75405
H        -12.19732        2.09512       -0.11127
C         11.60588        1.56202       -0.07469
H         11.91442        2.61021       -0.05940
H         11.99947        1.03663        0.80200
H         11.97969        1.06837       -0.97806
C         -1.70269       -2.10657        0.05925
C         -2.61578       -2.93351        0.08839
H         -3.41598       -3.64680        0.10918
