97
Cartesian coordinates of the optimized triplet state structure T1 of mer,cis-[tris(trimethylphosphine)ethynyl-2,5-bis(p-carbomethoxy-phenylethynyl)-cyclohexa[1',2':3,4]rhodacyclopenta-2,4-diene] (1c-H).
C         -1.27530        0.73352        0.02638
C         -0.70850        2.08473        0.04571
C          0.66130        2.15928        0.02100
C          1.37432        0.88815        0.01237
Rh         0.16465       -0.77864        0.01441
P          0.37671       -0.73185        2.36737
P         -1.44459       -2.60458        0.01848
P          0.35614       -0.72163       -2.34029
C          1.83144        0.19297        3.02312
H          1.74748        1.25452        2.77475
H          1.87997        0.07448        4.11259
H          2.74542       -0.19579        2.56542
C         -1.00767        0.03741        3.32029
H         -0.81155       -0.00667        4.39844
H         -1.10253        1.08326        3.01071
H         -1.95459       -0.46193        3.09935
C          0.64293       -2.36195        3.20059
H          0.82801       -2.21636        4.27145
H         -0.21749       -3.02526        3.08031
H          1.51223       -2.83505        2.73306
C         -2.65984       -2.69544        1.41990
H         -3.35072       -3.53320        1.26589
H         -2.15426       -2.83835        2.37867
H         -3.22932       -1.76179        1.45696
C         -0.75212       -4.31962        0.02319
H         -0.11469       -4.45763        0.90141
H         -1.55675       -5.06538        0.02519
H         -0.11471       -4.46194       -0.85439
C         -2.66071       -2.70555       -1.38149
H         -2.15572       -2.85291       -2.33985
H         -3.34969       -3.54383       -1.22193
H         -3.23218       -1.77340       -1.42361
C         -1.04045        0.04372       -3.27839
H         -1.13967        1.08725       -2.96230
H         -0.85177        0.00689       -4.35814
H         -1.98281       -0.46240       -3.05380
C          0.62584       -2.34711       -3.18129
H         -0.22356       -3.02147       -3.04556
H          0.78932       -2.19791       -4.25519
H          1.50903       -2.81064       -2.73058
C          1.79877        0.21447       -3.00709
H          1.83850        0.09742       -4.09708
H          1.70869        1.27518       -2.75710
H          2.71971       -0.16781       -2.55804
C         -1.58434        3.31155        0.07918
H         -2.05815        3.43818       -0.90757
H         -2.41523        3.14686        0.77822
C          1.40651        3.47104        0.01296
H          1.86919        3.62348        1.00123
H          2.24802        3.40835       -0.68977
C          0.50255        4.65922       -0.32649
H          1.02570        5.59959       -0.10985
H          0.28330        4.65834       -1.40416
C         -0.81087        4.57884        0.45101
H         -1.42975        5.46478        0.25863
H         -0.59081        4.57252        1.52852
C         -2.63729        0.61024        0.01605
C         -3.88417        0.49950        0.00519
C          2.74005        0.85490        0.00476
C          3.98552        0.79974       -0.00207
C         -5.28862        0.46834       -0.00825
C         -6.03639        1.68045       -0.01440
C         -6.01266       -0.75755       -0.01610
C         -7.42308        1.66391       -0.02827
H         -5.49791        2.62585       -0.00933
C         -7.39876       -0.76534       -0.02962
H         -5.46378       -1.69701       -0.01070
C         -8.12413        0.44149       -0.03607
H         -7.97955        2.59781       -0.03341
H         -7.95269       -1.70176       -0.03548
C          5.38350        0.65632       -0.01104
C          6.24602        1.78553       -0.01195
C          5.96907       -0.64006       -0.02016
C          7.62480        1.62470       -0.02211
H          5.80837        2.78172       -0.00411
C          7.34722       -0.79065       -0.03027
H          5.30928       -1.50505       -0.01930
C          8.19238        0.33582       -0.03164
H          8.27655        2.49474       -0.02281
H          7.80176       -1.77909       -0.03753
C         -9.60210        0.36886       -0.05119
O        -10.24490       -0.66530       -0.05796
O        -10.18102        1.58927       -0.05700
C          9.65586        0.10947       -0.04333
O         10.18710       -0.98582       -0.05132
O         10.36052        1.26218       -0.04450
C         11.77692        1.09828       -0.05603
H         12.19295        2.10879       -0.05548
H         12.11250        0.54800        0.82950
H         12.09873        0.55465       -0.95073
C        -11.60700        1.57766       -0.07193
H        -12.00166        1.06912        0.81416
H        -11.91228        2.62692       -0.07505
H        -11.98298        1.06926       -0.96618
C          1.70200       -2.11340        0.00583
C          2.61400       -2.94210        0.00180
H          3.41338       -3.65659       -0.00183
