97
Cartesian coordinates of the optimized singlet state structure S1 of mer,cis-[tris(trimethylphosphine)ethynyl-2,5-bis(p-carbomethoxy-phenylethynyl)-cyclohexa[1',2':3,4]rhodacyclopenta-2,4-diene] (1c-H).
C         -1.26131        0.77346        0.03475
C         -0.71592        2.09639        0.05399
C          0.68466        2.17152        0.03696
C          1.37205        0.92354        0.02173
Rh         0.16193       -0.73709        0.01869
P          0.37757       -0.70006        2.37653
P         -1.45674       -2.56928        0.01844
P          0.35333       -0.67633       -2.34084
C          1.83804        0.21640        3.03037
H          1.75764        1.27903        2.78537
H          1.88983        0.09413        4.11924
H          2.74913       -0.17481        2.56871
C         -1.00552        0.07053        3.32902
H         -0.80902        0.02698        4.40710
H         -1.10067        1.11592        3.01808
H         -1.95240       -0.42939        3.10853
C          0.63829       -2.33458        3.20188
H          0.82455       -2.19259        4.27300
H         -0.22455       -2.99441        3.08055
H          1.50597       -2.80903        2.73285
C         -2.66777       -2.66592        1.42303
H         -3.35988       -3.50208        1.26597
H         -2.15891       -2.81588        2.37902
H         -3.23677       -1.73235        1.46833
C         -0.75982       -4.28237        0.01775
H         -0.11937       -4.42110        0.89359
H         -1.56335       -5.02928        0.02103
H         -0.12550       -4.42232       -0.86242
C         -2.67211       -2.66876       -1.38224
H         -2.16606       -2.81569       -2.34016
H         -3.36015       -3.50795       -1.22350
H         -3.24537       -1.73776       -1.42488
C         -1.04350        0.09566       -3.27206
H         -1.14141        1.13737       -2.94969
H         -0.85642        0.06445       -4.35224
H         -1.98587       -0.41129       -3.04873
C          0.61565       -2.30200       -3.18263
H         -0.23592       -2.97336       -3.04643
H          0.77746       -2.15137       -4.25656
H          1.49840       -2.76913       -2.73492
C          1.80065        0.25522       -3.00261
H          1.84192        0.14105       -4.09282
H          1.71439        1.31540       -2.74902
H          2.71941       -0.13236       -2.55333
C         -1.58008        3.33134        0.06803
H         -2.02295        3.46572       -0.93266
H         -2.43395        3.17351        0.74054
C          1.41862        3.48912        0.05558
H          1.84284        3.64357        1.06126
H          2.28590        3.43674       -0.61589
C          0.51709        4.67391       -0.30270
H          1.03633        5.61493       -0.08021
H          0.31373        4.67109       -1.38356
C         -0.80699        4.59400        0.45693
H         -1.42114        5.48172        0.25855
H         -0.60198        4.58456        1.53747
C         -2.63794        0.63233        0.02535
C         -3.87701        0.51031        0.01272
C          2.74915        0.87011        0.01137
C          3.98851        0.79039        0.00166
C         -5.28493        0.45786       -0.00437
C         -6.04890        1.65941       -0.02760
C         -5.98989       -0.77895        0.00029
C         -7.43472        1.62287       -0.04607
H         -5.52416        2.61281       -0.03223
C         -7.37529       -0.80723       -0.01766
H         -5.42804       -1.71079        0.01897
C         -8.12017        0.38949       -0.04142
H         -8.00434        2.54870       -0.06435
H         -7.91551       -1.75167       -0.01392
C          5.38601        0.63078       -0.01188
C          6.26121        1.75102       -0.00350
C          5.95644       -0.67269       -0.03572
C          7.63729        1.57442       -0.01908
H          5.83513        2.75225        0.01581
C          7.33208       -0.83886       -0.05138
H          5.28665       -1.53014       -0.04169
C          8.19182        0.27837       -0.04367
H          8.29893        2.43699       -0.01264
H          7.77531       -1.83233       -0.07006
C         -9.59290        0.29509       -0.06088
O        -10.22414       -0.74855       -0.05720
O        -10.19121        1.50915       -0.08423
C          9.64943        0.03552       -0.06206
O         10.17030       -1.06630       -0.08279
O         10.36893        1.18149       -0.05374
C         11.78236        0.99971       -0.07126
H         12.21171        2.00477       -0.06192
H         12.11431        0.43626        0.80753
H         12.09538        0.46090       -0.97218
C        -11.61567        1.47456       -0.10426
H        -12.00688        0.97044        0.78615
H        -11.93820        2.51877       -0.12116
H        -11.98122        0.94960       -0.99353
C          1.69436       -2.08199        0.00562
C          2.60286       -2.91487       -0.00074
H          3.39837       -3.63386       -0.00560
