87
Cartesian coordinates of the optimized ground state structure S0 of trans-[bis(trimethylphosphine)(N,N-diethyldithiocarbamato-kappa2-S,S')-2,5-bis(phenylethynyl)-cyclohexa[1',2':3,4]rhodacyclopenta-2,4-diene] (2a).
H         -0.58419       -1.52940       -4.26234
H         -0.49863       -5.38439       -1.44788
H          1.72576       -0.14689       -4.17269
H         -1.22896       -6.32520       -0.14644
H         -0.23110       -2.51854       -2.81333
C         -0.70222       -1.59947       -3.17414
H          2.33222       -1.01080       -2.72573
H          1.22848       -6.32527        0.14774
H          1.87202       -4.35039       -1.08118
C         -0.67390       -5.40274       -0.36182
C          1.77486       -0.13756       -3.07696
H         -0.60446        1.16280       -4.30924
H         -1.76611       -1.63603       -2.91996
C          0.67349       -5.40273        0.36299
H         -2.41131       -4.09905       -0.56694
H          2.30431        0.75925       -2.73988
C          1.51052       -4.18871       -0.05312
C         -1.51085       -4.18858        0.05408
C         -0.72699        1.26526       -3.22393
H          5.96611       -2.80329        0.10704
P          0.07913       -0.14631       -2.34635
H          8.36969       -2.17417        0.15439
H          2.41103       -4.09917        0.56785
H          0.49823       -5.38420        1.44904
H         -8.36970       -2.17394       -0.15811
H         -5.96616       -2.80308       -0.10918
H         -1.79152        1.29325       -2.97286
C          0.72369       -2.89811       -0.00946
H         -0.27277        2.20445       -2.89251
C          6.25835       -1.75499        0.11175
H         -1.87241       -4.35010        1.08215
C         -0.72390       -2.89805        0.01029
C          7.60645       -1.39742        0.13799
C         -7.60646       -1.39719       -0.14096
C         -6.25839       -1.75478       -0.11383
C          1.29464       -1.64349       -0.01023
C          2.67875       -1.41469        0.02068
C          3.87336       -1.11778        0.05837
C         -1.29476       -1.64339        0.01093
C          5.25237       -0.76374        0.08955
C          7.98179       -0.04799        0.14263
H          9.03479        0.22817        0.16269
C         -2.67884       -1.41449       -0.01998
C         -3.87343       -1.11760       -0.05855
H         -9.03478        0.22841       -0.16627
C         -7.98179       -0.04776       -0.14552
C         -5.25242       -0.76354       -0.09063
Rh        -0.00000       -0.08086        0.00031
C          5.64211        0.59467        0.09591
C          6.99227        0.94349        0.12150
H          1.88195        4.44055       -2.03707
C         -6.99228        0.94371       -0.12341
C         -5.64215        0.59488       -0.09693
H          4.87102        1.36284        0.08025
H          7.27637        1.99494        0.12525
H          0.91255        5.93359       -2.01047
H         -7.27637        1.99516       -0.12709
H         -4.87106        1.36303       -0.08052
S          1.45901        1.97810       -0.08712
C          1.68147        5.36059       -1.47827
H          0.23107       -2.51834        2.81409
H          2.59969        5.95998       -1.46134
S         -1.45887        1.97821        0.08763
H          1.76608       -1.63584        2.92073
C          0.00010        2.90485        0.00022
H         -2.02707        4.45736       -0.45869
C          0.70218       -1.59926        3.17487
P         -0.07912       -0.14614        2.34698
N          0.00015        4.25844        0.00015
H         -1.08286        5.95073       -0.52323
H         -2.33224       -1.01055        2.72644
C          1.24526        5.02967       -0.05081
C         -1.24490        5.02977        0.05101
H          2.02739        4.45727        0.45897
H          0.58412       -1.52913        4.26307
C         -1.77487       -0.13727        3.07756
H          1.79153        1.29348        2.97338
H          1.08330        5.95072        0.52331
H         -2.30429        0.75950        2.74034
C          0.72702        1.26547        3.22448
H          0.27276        2.20464        2.89307
H         -1.72579       -0.14645        4.17330
C         -1.68109        5.36091        1.47843
H         -2.59928        5.96035        1.46141
H         -1.88162        4.44096        2.03735
H          0.60452        1.16303        4.30980
H         -0.91214        5.93393        2.01055
