87
Cartesian coordinates of the optimized singlet state structure S1 of trans-[bis(trimethylphosphine)(N,N-diethyldithiocarbamato-kappa2-S,S')-2,5-bis(phenylethynyl)-cyclohexa[1',2':3,4]rhodacyclopenta-2,4-diene] (2a).
H          0.72796       -1.55708        4.28597
H          0.49361       -5.41430        1.49244
H         -1.57833       -0.14560        4.28596
H          1.18924       -6.36036        0.17548
H          0.30411       -2.53765        2.85051
C          0.79964       -1.62430        3.19391
H         -2.24618       -0.99740        2.85821
H         -1.28430       -6.34313       -0.05207
H         -1.88897       -4.34078        1.17026
C          0.64151       -5.43654        0.40287
C         -1.66677       -0.13195        3.19298
H          0.77664        1.14101        4.34141
H          1.85176       -1.67100        2.89478
C         -0.72305       -5.42944       -0.28730
H          2.37575       -4.12140        0.57793
H         -2.19824        0.77141        2.87754
C         -1.53048       -4.20001        0.13656
C          1.46696       -4.22279       -0.03136
C          0.85940        1.24393        3.25261
H         -5.95451       -2.73784       -0.07405
P          0.00286       -0.15751        2.40639
H         -8.33286       -2.09790       -0.35088
H         -2.43779       -4.09039       -0.47356
H         -0.57493       -5.41866       -1.37701
H          8.33937       -2.14026       -0.07772
H          5.94738       -2.78832       -0.04295
H          1.91416        1.25915        2.96196
C         -0.71955       -2.93431        0.07394
H          0.40440        2.18925        2.94020
C         -6.23437       -1.68822       -0.14324
H          1.82332       -4.37761       -1.06380
C          0.67477       -2.94478        0.02028
C         -7.56818       -1.32381       -0.29835
C          7.57106       -1.36811       -0.06346
C          6.22965       -1.73706       -0.04361
C         -1.30646       -1.62315        0.08617
C         -2.65891       -1.36946        0.09416
C         -3.86515       -1.04803        0.08900
C          1.28085       -1.64254       -0.00290
C         -5.21742       -0.69495       -0.07087
C         -7.93544        0.02988       -0.38763
H         -8.98095        0.30860       -0.50893
C          2.63690       -1.40894       -0.00741
C          3.84737       -1.10427       -0.00980
H          8.99283        0.26995       -0.08110
C          7.94138       -0.01232       -0.06541
C          5.20774       -0.74644       -0.02599
Rh        -0.00136       -0.09700        0.03937
C         -5.60221        0.67309       -0.16380
C         -6.94043        1.02030       -0.31913
H         -1.78314        4.43650        2.13202
C          6.94170        0.97559       -0.04661
C          5.59583        0.62380       -0.02693
H         -4.83288        1.44182       -0.11154
H         -7.21653        2.07195       -0.38786
H         -0.80228        5.92096        2.07157
H          7.22016        2.02886       -0.04775
H          4.82296        1.39061       -0.01202
S         -1.44066        1.96819        0.17261
C         -1.59283        5.35395        1.56543
H         -0.34298       -2.54117       -2.76455
H         -2.50599        5.96083        1.57747
S          1.46846        1.94621       -0.10058
H         -1.87726       -1.65132       -2.81211
C          0.02080        2.88579        0.03490
H          2.07453        4.42373        0.42540
C         -0.82444       -1.62143       -3.11088
P         -0.00594       -0.16457       -2.32726
N          0.03085        4.23796        0.03333
H          1.14269        5.92275        0.51841
H          2.23024       -1.03967       -2.77592
C         -1.20661        5.01894        0.12463
C          1.27976        5.00029       -0.05956
H         -2.00988        4.45324       -0.35911
H         -0.75128       -1.55852       -4.20310
C          1.66418       -0.16640       -3.11326
H         -1.89546        1.27911       -2.88761
H         -1.05589        5.93805       -0.45528
H          2.20909        0.72967       -2.79994
C         -0.84096        1.24714       -3.17787
H         -0.37185        2.18638       -2.86805
H          1.57603       -0.18162       -4.20624
C          1.67093        5.32650       -1.50104
H          2.59305        5.91966       -1.51432
H          1.84753        4.40512       -2.06569
H         -0.75945        1.13982       -4.26634
H          0.88892        5.90419       -2.00839
