87
Cartesian coordinates of the optimized ground state structure S0 of mer,cis-[tris(trimethylphosphine)chlorido-2,5-bis(p-carbomethoxy-phenylethynyl)-cyclohexa[1',2':3,4]iridacyclopenta-2,4-diene] (3-Me).
C         -8.11140        0.44827       -0.08105
C         -7.21153       -0.62564        0.03086
C         -5.83931       -0.39846        0.00740
C         -5.33470        0.91588       -0.12938
C         -6.24629        1.98971       -0.24145
C         -7.61653        1.75537       -0.21721
C         -3.92956        1.12707       -0.15039
C         -2.70327        1.21388       -0.15621
C         -1.29734        1.22106       -0.15238
Ir        -0.18134       -0.51368        0.02257
Cl        -2.18612       -2.08026        0.16770
C         -9.58429        0.25981       -0.06240
O        -10.39713        1.15965       -0.15789
C         -0.56960        2.38137       -0.27769
C          0.85900        2.20667       -0.25559
C          1.68842        3.45412       -0.38637
C          1.16788        4.55077        0.56274
C         -0.36657        4.77261        0.48013
C         -1.08807        3.78014       -0.45496
C          1.30617        0.90204       -0.11296
C          2.69923        0.67847       -0.08874
C          3.92378        0.54204       -0.07593
C          5.34515        0.48461       -0.07647
C          6.04400       -0.73884        0.04133
C          7.43493       -0.76887        0.03726
C          8.17102        0.42082       -0.08407
C          7.48790        1.64235       -0.20208
C          6.09912        1.67698       -0.19868
C          9.65534        0.44533       -0.09304
O         10.32715        1.45370       -0.19525
P         -0.22757       -0.14205        2.34705
C         -1.39679       -1.16601        3.33996
C          1.40052       -0.30322        3.21250
C         -0.72374        1.54789        2.89696
P          0.98588       -2.62677        0.21611
C          2.83427       -2.70561        0.19472
C          0.60937       -3.65339        1.71585
C          0.56385       -3.91939       -1.04714
P         -0.21900       -0.57512       -2.33695
C         -0.65995        1.00062       -3.19257
C         -1.42271       -1.73132       -3.11987
C          1.39408       -0.94081       -3.16927
H         -0.91649        4.09093       -1.49864
H         -2.17121        3.81836       -0.29477
H          1.62522        3.82196       -1.42352
H          2.74604        3.24909       -0.19081
H          1.69929        5.48716        0.35214
H          1.44337        4.26932        1.58716
H         -0.80043        4.68064        1.48322
H         -0.58540        5.79458        0.14671
H          5.48418       -1.66572        0.13584
H          5.57385        2.62513       -0.29138
H          7.96038       -1.71608        0.12871
H          8.06966        2.55686       -0.29606
H         -5.13027       -1.21970        0.09293
H         -5.86248        3.00232       -0.34705
H         -7.59501       -1.63732        0.13626
H         -8.32740        2.57439       -0.30275
H          1.29228       -0.11857        4.28776
H          1.83190       -1.29678        3.06366
H          2.09332        0.42952        2.78557
H         -0.06328        2.29471        2.44905
H         -1.75040        1.75255        2.58079
H         -0.65696        1.60795        3.99003
H          1.13380       -4.61409        1.64930
H          0.91564       -3.15628        2.64007
H         -0.47028       -3.83088        1.74288
H         -1.37050       -0.85283        4.39056
H         -2.40161       -1.02520        2.93035
H         -1.15904       -2.22845        3.26566
H          0.86736       -3.62272       -2.05458
H          1.06666       -4.86141       -0.79811
H         -0.52032       -4.06753       -1.02668
H          3.23990       -2.11600        1.02230
H          3.17581       -3.74454        0.28015
H          3.21165       -2.26957       -0.73503
H         -1.37312       -1.64577       -4.21200
H         -1.23091       -2.76245       -2.81841
H         -2.42450       -1.46890       -2.76672
H          2.13330       -0.20558       -2.83441
H          1.76508       -1.93607       -2.91029
H          1.28802       -0.87768       -4.25872
H         -1.67713        1.29928       -2.92491
H          0.03076        1.79307       -2.89215
H         -0.59425        0.85164       -4.27717
O         -9.93902       -1.03455        0.07341
C        -11.34516       -1.27309        0.09664
