92
Atomic coordinates of Cu(dppb)(PPh3)Cl 1optimized (B3LYP/def2-SVP)  in the ground state T1
Cu       0.405910510      0.462591050      0.102497450 
Cl       1.768177080      2.190674080     -0.415053120 
P       -0.253472830      1.081790060      2.286592450 
P        0.719102610     -1.712472450      0.995061960 
P       -0.589463340      0.429891240     -2.167052770 
C       -0.317595220     -0.418855400      3.265953010 
C       -1.915861860      1.853781340      2.243925860 
C        0.040541880     -1.687530140      2.648167340 
C       -0.811950200     -1.560713400      5.373386900 
H       -1.148728720     -1.520713760      6.412019260 
C       -0.766314250     -0.406439620      4.607794190 
H       -1.078838490      0.542681250      5.055255750 
C       -2.316492050      2.869165640      3.137668660 
H       -1.600574710      3.284845310      3.849960560 
C        0.847205060      2.289268870      3.123143310 
C        1.907589170     -0.262934570     -3.210284620 
H        2.288212400      0.416291390     -2.441289810 
C        3.037062320     -3.351349150      1.271648420 
H        2.350877100     -4.199993520      1.336833830 
C        2.539666620     -2.057336090      1.004212050 
C        0.022909230     -3.182399190      0.124210890 
C        0.022351300     -2.851234300      3.480542060 
H        0.333924970     -3.812338100      3.061109780 
C       -1.709245820     -4.871550980     -0.158726430 
H       -2.615773660     -5.361408970      0.208320830 
C       -0.395294960     -2.801170460      4.793430460 
H       -0.417534940     -3.717188200      5.390522910 
C       -1.157227550     -3.809310290      0.564725840 
H       -1.641697690     -3.463990230      1.480421910 
C       -0.714928570      2.138099130     -2.849064920 
C        2.624589050      4.125317780      4.294321450 
H        3.314411310      4.840700310      4.750962060 
C        1.816203770      4.517541180      3.220554550 
H        1.878334160      5.537046630      2.830223440 
C       -2.272439480     -0.265493980     -2.489677160 
C        1.675418010      1.896642180      4.187945430 
H        1.629670820      0.871644110      4.561502890 
C        0.519068070     -0.460633720     -3.342366790 
C        0.941045710      3.604750130      2.630403110 
H        0.338864970      3.911884300      1.772974780 
C        2.794934260     -0.923867030     -4.063834070 
H        3.870468220     -0.760711160     -3.953575490 
C        3.450880990     -0.985291560      0.917364150 
H        3.095540310      0.028082280      0.706299550 
C        2.555861620      2.813606870      4.771818730 
H        3.191339580      2.497133770      5.603622100 
C        0.616617850     -3.622261320     -1.075168670 
H        1.526082490     -3.139737470     -1.442314800 
C       -0.295942950      2.472456180     -4.145660530 
H        0.150569860      1.712640230     -4.790886170 
C       -3.187834930      0.338671490     -3.370293850 
H       -2.912845570      1.249512290     -3.905612620 
C        4.820303780     -1.206110190      1.087561760 
H        5.513356720     -0.363770280      1.006940380 
C       -1.273540170      3.135297160     -2.030738090 
H       -1.583648420      2.895674820     -1.010329570 
C       -3.628302550      3.350139890      3.118485790 
H       -3.922984270      4.135862070      3.820226090 
C        4.405485280     -3.563048630      1.445538170 
H        4.774330160     -4.572513510      1.650646070 
C       -4.561620640      2.835903260      2.211045100 
H       -5.586056980      3.217512930      2.198896720 
C        5.304383980     -2.492059820      1.354474550 
H        6.376184290     -2.660789970      1.490687060 
C       -1.105728460     -5.308164710     -1.343583800 
H       -1.541109340     -6.135790000     -1.910394700 
C       -2.865896350      1.341435230      1.333541300 
H       -2.579324490      0.549461360      0.636020990 
C        0.040628310     -1.334460690     -4.332301740 
H       -1.032668840     -1.503510410     -4.442986470 
C       -4.172897170      1.827486580      1.317705530 
H       -4.891293600      1.418726560      0.601713300 
C       -0.441841680      3.781599820     -4.618981420 
H       -0.106755250      4.031458760     -5.629523530 
C       -1.428555260      4.437473570     -2.509439650 
H       -1.865732860      5.203219260     -1.862948530 
C       -2.658420350     -1.432743410     -1.807198320 
H       -1.966104930     -1.917256410     -1.116625230 
C       -4.455768450     -0.218407960     -3.566062580 
H       -5.156563900      0.263712770     -4.253421750 
C        2.312168190     -1.793327230     -5.049062360 
H        3.009471120     -2.312278380     -5.712718260 
C       -1.010590130      4.764510870     -3.804614060 
H       -1.122389040      5.787230390     -4.175292240 
C        0.055854790     -4.676072300     -1.801316850 
H        0.530108310     -5.003214460     -2.730637700 
C       -4.827370650     -1.383648120     -2.887575100 
H       -5.820141390     -1.815792960     -3.041071410 
C       -3.924005190     -1.990750990     -2.009308490 
H       -4.201404690     -2.901398390     -1.471919060 
C        0.935224380     -1.997009380     -5.180533290 
H        0.550769030     -2.674639220     -5.948126420 