172
Atomic coordinates of Cu2(tppb)(PPh3)2Cl22 optimized (B3LYP/def2-SVP)  in the first excited triplet state T1 with Ci symmetry constraint
Cu      -1.038043490     -4.287862370      0.487220700 
Cl      -3.258529810     -4.521462980      1.021710080 
P        0.173646290     -2.713626850      1.763835970 
P       -0.670663060     -2.860175050     -1.373231720 
P       -0.366185860     -6.609126960      0.413483860 
C        0.081162780     -1.187077850      0.790318640 
C       -0.249406420     -1.266146710     -0.633042100 
C       -0.312369130     -0.065206880     -1.363750170 
H       -0.564581470     -0.112959690     -2.426598960 
C       -0.491600030     -2.303984720      3.432159330 
C        0.329489400     -1.875333230      4.491792990 
H        1.410712830     -1.803331020      4.354549210 
C       -0.232708270     -1.537041050      5.727311700 
H        0.415411410     -1.202402340      6.542480740 
C       -1.614689320     -1.627565330      5.920471060 
H       -2.051385470     -1.365822300      6.888531120 
C       -2.435134770     -2.062518950      4.872831150 
H       -3.515395460     -2.148530650      5.020259600 
C       -1.881861690     -2.403163020      3.635723440 
H       -2.526839900     -2.769308140      2.830818830 
C        1.958074810     -3.070072540      2.079641130 
C        2.986826840     -2.245953030      1.596100290 
H        2.738854870     -1.339458590      1.039229650 
C        4.326800830     -2.569807780      1.839697890 
H        5.116868500     -1.914023690      1.463190580 
C        4.653052400     -3.717439620      2.567282160 
H        5.700319970     -3.968029100      2.758260840 
C        3.633428040     -4.548188590      3.048309460 
H        3.880374390     -5.453164120      3.609844030 
C        2.297058020     -4.231440710      2.799418290 
H        1.509672080     -4.894324460      3.170171790 
C       -2.073397450     -2.547804580     -2.527711730 
C       -3.385449890     -2.643731410     -2.026328470 
H       -3.551978550     -2.968659960     -0.994549080 
C       -4.474903500     -2.355065910     -2.852941790 
H       -5.489503800     -2.440913300     -2.453517290 
C       -4.273799040     -1.973415440     -4.184592950 
H       -5.129475730     -1.751839210     -4.828908300 
C       -2.973201470     -1.885135730     -4.690902190 
H       -2.807052160     -1.592865310     -5.731855560 
C       -1.877425660     -2.172967780     -3.870682250 
H       -0.867452920     -2.106380700     -4.281569930 
C        0.709130850     -3.355238810     -2.498901600 
C        0.557033330     -4.497005030     -3.310563720 
H       -0.386653260     -5.050082750     -3.307828420 
C        1.603984230     -4.932563510     -4.125389510 
H        1.467931470     -5.817557190     -4.753158610 
C        2.824212720     -4.244598570     -4.131957540 
H        3.644394700     -4.587610140     -4.768909460 
C        2.987874150     -3.117763750     -3.320730050 
H        3.935934030     -2.572479490     -3.322505210 
C        1.937390250     -2.674521190     -2.508388250 
H        2.067361310     -1.787662270     -1.883653020 
C       -1.114842840     -7.609514970      1.771392220 
C       -1.428541250     -6.964079750      2.978994540 
H       -1.273452520     -5.887130380      3.073482790 
C       -1.973860550     -7.683821990      4.046504990 
H       -2.216238210     -7.167182240      4.979134370 
C       -2.228698240     -9.051906250      3.913009410 
H       -2.664153900     -9.612701660      4.744922250 
C       -1.940303450     -9.698986600      2.706185910 
H       -2.150721470    -10.766119090      2.591344370 
C       -1.388854980     -8.982139890      1.640221280 
H       -1.177204060     -9.494064070      0.697990420 
C        1.422620320     -7.076513870      0.433684720 
C        2.302428050     -6.310677440     -0.353987970 
H        1.918914660     -5.477147520     -0.947511920 
C        3.667942580     -6.602479350     -0.386118890 
H        4.332894530     -5.997149730     -1.007683930 
C        4.180774360     -7.651427290      0.385010170 
H        5.251149740     -7.875266370      0.366501810 
C        3.318787500     -8.406373720      1.185707010 
H        3.711722940     -9.224492050      1.796280840 
C        1.948077670     -8.123555540      1.209747090 
H        1.288263450     -8.723898900      1.839301130 
C       -1.015204400     -7.417900650     -1.118939430 
C       -0.267295890     -8.315390040     -1.898994540 
H        0.751700620     -8.578941220     -1.606825860 
C       -0.819077190     -8.875533930     -3.057309960 
H       -0.226364560     -9.573664750     -3.655559810 
C       -2.120977120     -8.546915020     -3.446576790 
H       -2.550531530     -8.985281650     -4.351883430 
C       -2.870841070     -7.651918850     -2.674227390 
H       -3.888356500     -7.386226790     -2.974162440 
C       -2.323695340     -7.084055470     -1.520433690 
H       -2.910495710     -6.376284750     -0.925982390 
C        0.312369130      0.065206880      1.363750170 
C       -0.081162780      1.187077850     -0.790318640 
C        0.249406420      1.266146710      0.633042100 
H        0.564581470      0.112959690      2.426598960 
P       -0.173646290      2.713626850     -1.763835970 
P        0.670663060      2.860175050      1.373231720 
Cu       1.038043490      4.287862370     -0.487220700 
C        0.491600030      2.303984720     -3.432159330 
C       -1.958074810      3.070072540     -2.079641130 
C        2.073397450      2.547804580      2.527711730 
C       -0.709130850      3.355238810      2.498901600 
Cl       3.258529810      4.521462980     -1.021710080 
P        0.366185860      6.609126960     -0.413483860 
C       -0.329489400      1.875333230     -4.491792990 
C        1.881861690      2.403163020     -3.635723440 
C       -2.986826840      2.245953030     -1.596100290 
C       -2.297058020      4.231440710     -2.799418290 
C        3.385449890      2.643731410      2.026328470 
C        1.877425660      2.172967780      3.870682250 
C       -0.557033330      4.497005030      3.310563720 
C       -1.937390250      2.674521190      2.508388250 
H        2.526839900      2.769308140     -2.830818830 
H        2.910495710      6.376284750      0.925982390 
C        1.114842840      7.609514970     -1.771392220 
C       -1.422620320      7.076513870     -0.433684720 
C        1.015204400      7.417900650      1.118939430 
H       -1.410712830      1.803331020     -4.354549210 
C        0.232708270      1.537041050     -5.727311700 
C        2.435134770      2.062518950     -4.872831150 
H       -2.738854870      1.339458590     -1.039229650 
C       -4.326800830      2.569807780     -1.839697890 
C       -3.633428040      4.548188590     -3.048309460 
H       -1.509672080      4.894324460     -3.170171790 
H        3.551978550      2.968659960      0.994549080 
C        4.474903500      2.355065910      2.852941790 
C        2.973201470      1.885135730      4.690902190 
H        0.867452920      2.106380700      4.281569930 
H        0.386653260      5.050082750      3.307828420 
C       -1.603984230      4.932563510      4.125389510 
C       -2.987874150      3.117763750      3.320730050 
H       -2.067361310      1.787662270      1.883653020 
C        2.323695340      7.084055470      1.520433690 
C        1.428541250      6.964079750     -2.978994540 
C        1.388854980      8.982139890     -1.640221280 
C       -2.302428050      6.310677440      0.353987970 
C       -1.948077670      8.123555540     -1.209747090 
C        0.267295890      8.315390040      1.898994540 
H       -0.415411410      1.202402340     -6.542480740 
C        1.614689320      1.627565330     -5.920471060 
H        3.515395460      2.148530650     -5.020259600 
H       -5.116868500      1.914023690     -1.463190580 
C       -4.653052400      3.717439620     -2.567282160 
H       -3.880374390      5.453164120     -3.609844030 
H        5.489503800      2.440913300      2.453517290 
C        4.273799040      1.973415440      4.184592950 
H        2.807052160      1.592865310      5.731855560 
H       -1.467931470      5.817557190      4.753158610 
C       -2.824212720      4.244598570      4.131957540 
H       -3.935934030      2.572479490      3.322505210 
C        2.870841070      7.651918850      2.674227390 
H        1.273452520      5.887130380     -3.073482790 
C        1.973860550      7.683821990     -4.046504990 
C        1.940303450      9.698986600     -2.706185910 
H        1.177204060      9.494064070     -0.697990420 
H       -1.918914660      5.477147520      0.947511920 
C       -3.667942580      6.602479350      0.386118890 
C       -3.318787500      8.406373720     -1.185707010 
H       -1.288263450      8.723898900     -1.839301130 
H       -0.751700620      8.578941220      1.606825860 
C        0.819077190      8.875533930      3.057309960 
H        2.051385470      1.365822300     -6.888531120 
H       -5.700319970      3.968029100     -2.758260840 
H        5.129475730      1.751839210      4.828908300 
H       -3.644394700      4.587610140      4.768909460 
C        2.120977120      8.546915020      3.446576790 
H        3.888356500      7.386226790      2.974162440 
H        2.216238210      7.167182240     -4.979134370 
C        2.228698240      9.051906250     -3.913009410 
H        2.150721470     10.766119090     -2.591344370 
H       -4.332894530      5.997149730      1.007683930 
C       -4.180774360      7.651427290     -0.385010170 
H       -3.711722940      9.224492050     -1.796280840 
H        0.226364560      9.573664750      3.655559810 
H        2.550531530      8.985281650      4.351883430 
H        2.664153900      9.612701660     -4.744922250 
H       -5.251149740      7.875266370     -0.366501810 
