7
Coordinates from ORCA-job acetaldehyde_TD-CAM-B3LYP_S1_NTIb_TS_opt+freq
  H   -1.44350321189875     -1.00989520200611     -0.41740064689455
  C   -1.15483876515565     -0.06963814124905      0.07263118331306
  H   -1.75517481971332      0.72147722205831     -0.36877578960645
  H   -1.36311126192513     -0.14930338988067      1.14356501937496
  O   1.41766888957665     -0.04870974023548     -0.08219148830211
  C   0.28442511323502      0.10321080626474     -0.36073686345051
  H   -0.01851094411881      1.40122044504825      0.67842058556560
