13
Coordinates from ORCA-job butanal_TD-CAM-B3LYP_S1_NTIb_TS_opt+freq
  C   -1.05383421125226      0.03060697664146     -0.29507275938686
  H   -1.16432280480920      0.78291241607300     -1.07329202819323
  H   -1.68476335830460      0.30497701954369      0.55615600966910
  O   1.19719969357313     -0.33866478828458      0.88991960504096
  C   0.43310981747755     -0.12331088875144      0.02284694062168
  H   0.01693819974938      1.46136400940433      0.47133195512580
  C   -1.50748646058631     -1.34207326644825     -0.83348252312592
  H   -0.88272073360762     -1.60849281802456     -1.68569416657073
  H   -1.34207299788511     -2.09808107213154     -0.06329807837626
  C   -2.97475853962114     -1.30670503440821     -1.22471313648632
  H   -3.15276996562261     -0.59550552894291     -2.03264939039632
  H   -3.30453858224426     -2.28833661557644     -1.56454845843388
  H   -3.60369505686693     -1.01800340909456     -0.38131996948803
