16
Coordinates from ORCA-job petan-2-one_TD-CAM-B3LYP_S1_NTIb_TS_opt+freq
  C   -1.25270597105296      0.51489767835123     -0.06548517854500
  O   -1.28672458743465     -0.52917460331574     -0.61729983116697
  H   0.97617351570551      0.80955120795060     -1.22767836530859
  C   0.95306298864033      0.68827864317960     -0.15203722263290
  H   1.11101407145202     -0.31733460276732      0.21022302611100
  H   1.40648075930634      1.48447785441304      0.42427536864244
  C   -1.14576324523856      1.31030853607674      1.19469006034514
  H   -0.42775352930796      0.91783483983465      1.93162762325069
  H   -0.83809862311241      2.31611087165576      0.92119031073247
  C   -2.54125275719529      1.34178901810419      1.84342618647264
  H   -3.25877414926790      1.74950036647043      1.13102381423942
  H   -2.47846593762583      2.03988617860833      2.68098711180289
  C   -2.99173732476169     -0.02122758672461      2.34009382476707
  H   -3.97211128437006      0.04028805733782      2.81192463259581
  H   -3.06017052813350     -0.74055486687196      1.52336747050262
  H   -2.29136739760340     -0.41822659230277      3.07671316819128
