53
Complex 2 P,A-Cl
Re -0.006881 -0.041034 -0.057982
Cl -0.162934 -0.360164 2.423529
C 0.211308 0.214694 -1.927958
O 0.339284 0.358361 -3.067401
C -1.275140 -1.416923 -0.451591
O -2.033722 -2.246486 -0.705403
C -1.480138 1.249018 -0.037785
O -2.337136 2.011617 -0.040354
N 1.617756 1.369762 0.433032
C 1.459842 2.694728 0.525335
H 0.448650 3.062193 0.416685
C 2.512556 3.558970 0.736847
H 2.329582 4.622550 0.807741
C 3.789782 3.029807 0.828829
H 4.649398 3.674895 0.963292
C 3.968163 1.662336 0.736452
H 4.958331 1.238669 0.767504
C 2.851508 0.860894 0.564954
N 2.904341 -0.528864 0.464763
C 1.766161 -1.202342 0.116359
N 2.101053 -2.493763 0.051822
C 1.093023 -3.542138 0.027696
H 0.289547 -3.252285 0.700602
H 1.536442 -4.466387 0.385345
H 0.704851 -3.691870 -0.977447
C 3.456235 -2.671281 0.332466
C 4.259419 -3.833160 0.377239
C 3.988197 -5.091351 -0.260998
C 3.213021 -5.230885 -1.467817
C 2.916661 -4.147739 -2.320165
H 3.290989 -3.160693 -2.083752
C 2.188133 -4.323185 -3.470292
H 1.984423 -3.472072 -4.109857
C 1.714317 -5.594459 -3.824543
H 1.121356 -5.722224 -4.722650
C 2.044857 -6.678733 -3.052148
H 1.735644 -7.677507 -3.341680
C 2.828392 -6.529569 -1.891660
C 3.307987 -7.668890 -1.188678
H 2.989226 -8.652942 -1.514880
C 4.218474 -7.527111 -0.194245
H 4.665229 -8.395429 0.277708
C 4.612840 -6.237995 0.260905
C 5.674800 -6.105911 1.195912
H 6.156124 -7.006756 1.560190
C 6.135514 -4.880257 1.551460
H 7.011693 -4.774409 2.181358
C 5.438218 -3.705277 1.161950
C 5.883565 -2.436750 1.593076
H 6.805292 -2.384869 2.160911
C 5.194184 -1.284718 1.320058
H 5.575324 -0.336169 1.664437
C 3.951062 -1.422419 0.691749
