35
Complex 1 C-CÎ™
Re 0.017257 0.000376 -0.130538
Cl 0.069460 -0.343012 2.353122
C -0.167601 -1.920960 -0.449566
O -0.267922 -3.044822 -0.656545
C 0.051763 0.314529 -2.004748
O 0.060370 0.507247 -3.143889
C -1.891358 0.123554 -0.169146
O -3.041782 0.191356 -0.192563
N 2.202951 0.015504 0.111150
C 2.971323 -1.072390 -0.014405
H 2.473758 -1.970058 -0.354339
C 4.319109 -1.071948 0.270615
H 4.895576 -1.978885 0.149104
C 4.892810 0.104913 0.723181
H 5.944682 0.147825 0.977893
C 4.111793 1.237085 0.855173
H 4.544620 2.150334 1.224167
C 2.768300 1.159201 0.524939
N 1.886299 2.236867 0.597460
C 2.110201 3.585798 0.893707
C 3.226144 4.355179 1.193718
H 4.227203 3.958200 1.243660
C 3.026471 5.708853 1.425395
H 3.884394 6.326097 1.662867
C 1.761527 6.290445 1.359413
H 1.649369 7.350678 1.550466
C 0.645941 5.531326 1.046095
H -0.341107 5.971560 0.984668
C 0.849983 4.183090 0.813562
N -0.052608 3.190532 0.462510
C 0.555869 2.012092 0.331412
C -1.462394 3.443120 0.272960
H -1.907589 2.590741 -0.227469
H -1.587820 4.329584 -0.348587
H -1.949243 3.602900 1.236067
