35
Complex 1 C-Î™
Re -0.021479 0.010320 0.002388
I 0.150694 0.218683 2.836171
C -1.928735 0.157092 0.080684
O -3.076422 0.240645 0.132722
C -0.219913 -1.930505 0.155623
O -0.323983 -3.069072 0.244667
C -0.116388 -0.088244 -1.893283
O -0.194574 -0.150961 -3.043066
N 2.175751 0.050194 0.047645
C 2.941845 -1.046793 0.005460
H 2.418250 -1.990811 -0.053706
C 4.317781 -0.998418 0.032357
H 4.888991 -1.916138 -0.001761
C 4.930139 0.243107 0.094360
H 6.009674 0.330053 0.105888
C 4.152720 1.384093 0.136842
H 4.618839 2.353430 0.165285
C 2.773331 1.249635 0.121851
N 1.886651 2.323179 0.161029
C 2.109369 3.695458 0.315907
C 3.228720 4.490797 0.517905
H 4.230392 4.099036 0.593679
C 3.027808 5.857997 0.645769
H 3.888251 6.496061 0.806585
C 1.756615 6.425279 0.579920
H 1.642790 7.496998 0.687785
C 0.634192 5.636044 0.388366
H -0.358890 6.064999 0.350980
C 0.838270 4.273874 0.259753
N -0.072759 3.243641 0.079054
C 0.541352 2.060885 0.042760
C -1.501229 3.446295 -0.005142
H -1.944485 2.609808 -0.535450
H -1.698960 4.362293 -0.559897
H -1.934118 3.523715 0.993431
