53
Complex 2 M,C-Cl
Re -0.023631 0.027283 -0.061746
Cl -0.329527 0.271046 2.414371
C 0.304212 -0.113819 -1.928002
O 0.493167 -0.193396 -3.065237
C -1.816687 0.547019 -0.476291
O -2.892134 0.862504 -0.744658
C -0.617978 -1.837088 -0.012810
O -0.952254 -2.934437 0.002908
N 2.090906 -0.344733 0.443647
C 2.632912 -1.562336 0.555408
H 1.951630 -2.396945 0.462107
C 3.979975 -1.762646 0.767904
H 4.366745 -2.768828 0.855882
C 4.807082 -0.653266 0.838047
H 5.876069 -0.765606 0.971187
C 4.260684 0.611326 0.725493
H 4.894561 1.482640 0.738953
C 2.890545 0.725718 0.557187
N 2.223585 1.945142 0.443248
C 0.901026 1.937044 0.095300
N 0.522909 3.216734 0.033753
C -0.881335 3.595861 0.014670
H -1.419733 2.925793 0.680727
H -0.977326 4.612371 0.384147
H -1.292173 3.535797 -0.990867
C 1.593078 4.066384 0.317225
C 1.682663 5.475969 0.370194
C 0.800692 6.418856 -0.260299
C 0.062285 6.147540 -1.467767
C 0.364070 5.071735 -2.327364
H 1.192337 4.415520 -2.095882
C -0.351336 4.855753 -3.478785
H -0.088616 4.025523 -4.124250
C -1.411173 5.705218 -3.827101
H -1.985547 5.516330 -4.726515
C -1.684680 6.799909 -3.047161
H -2.463198 7.499896 -3.331759
C -0.935484 7.066617 -1.885031
C -1.109785 8.285574 -1.173754
H -1.889352 8.967839 -1.494844
C -0.255521 8.625526 -0.177511
H -0.318681 9.596758 0.301152
C 0.746546 7.720107 0.270218
C 1.726473 8.148181 1.206040
H 1.675565 9.166074 1.576532
C 2.753419 7.332895 1.554322
H 3.560161 7.689526 2.184869
C 2.760047 5.969083 1.156517
C 3.796176 5.109344 1.581509
H 4.613894 5.536986 2.149918
C 3.798185 3.768329 1.301804
H 4.613567 3.148581 1.640479
C 2.660543 3.249477 0.673166
