11
Coordinates from ORCA-job crotonaldehyde_NTI_HCO_GS_radicals_asym_20A_opt+freq_fixed_opt+freq
  C   -8.95904706300977     -0.82869321744018     -4.18288874144839
  C   9.40924243509507      0.45766695209182      5.15281597434148
  O   -10.33314339019122     -1.04692352742921     -3.77440607502189
  H   -7.43747786925917     -0.73967713358525     -4.11721332014146
  H   9.36334057744335      1.08809450379633      6.23417955571912
  C   10.63613411446718      0.56787501148286      4.26197915953446
  H   10.31562256037061      0.74154514500586      3.20736523732310
  C   12.12974664875709      1.21666738945228      4.36754764187642
  H   12.37901243999774      0.48762076867081      5.32081319060543
  H   12.64116696128386      0.95339242954825      3.39658109436268
  H   12.30358507121587      2.41757250322833      4.88234517393010
