8
C2H4O2
O       -0.330028000     15.565207000    -10.398901000
C       -0.339169000     15.628667000     -9.226610000
H       -0.287381000     16.579133000     -8.641019000
C       -0.449090000     -1.586845000      1.627937000
H       -1.090177000     -0.836442000      1.201781000
H        0.272987000     -1.336266000      2.389316000
O       -0.176810000     -2.615614000      0.778965000
H        0.455145000     -3.210377000      1.189578000
