6
Coordinates from ORCA-job glyoxal_NTI_HCO_GS_radicals_asym_20A_opt+freq_fixed_opt+freq
  C   -6.64729876007646      2.14849341288231      6.89065854961691
  C   6.39668567484709     -1.38705277087825     -7.85747576623625
  O   -6.89959517597776      1.16032693827368      7.47223400741017
  O   7.39836980570706     -0.77609014464543     -7.89912437655527
  H   -7.40462315247363      2.81040442667467      6.40356025584891
  H   6.32766110497370     -2.48035227230697     -7.63633988708447
