10
Coordinates from ORCA-job propanal_NTI_HCO_GS_radicals_asym_20A_opt+freq_fixed_opt+freq
  C   -9.74061611068541     -1.28170693905807     -2.71108322440150
  C   8.80882740460469      2.03961586671062      3.07749543641897
  O   -8.57641506124704     -1.39875238585447     -2.61455638390251
  H   8.67794986712771      3.08730637555964      2.86210119657921
  H   -10.30772102439662     -1.33915658325798     -3.67236696791560
  H   8.05226096777964      1.55216882140957      3.67009699354776
  C   10.07598076394026      1.34697284613460      2.74282966299614
  H   10.52557907853565      1.74621832589386      1.83511892255295
  H   10.82214727330643      1.46053645935497      3.53800754329185
  H   9.92641612603469      0.27705132810726      2.60724496383273
