12
Coordinates from ORCA-job diacetyl_TD-B3LYP_S1_NTIb_TS_opt+freq
  C   -1.22388061981366      1.18566884263032     -0.38740322273923
  O   -1.71518794479119      0.28553954909262     -0.97533991599139
  H   0.93311031240591     -0.01553283713759     -0.81740730727899
  C   0.88450620710955      0.55713995258473      0.09700320093575
  H   0.99827826259979      0.01147375533196      1.02384726642527
  H   1.22822602430903      1.58106295012067      0.08055156968156
  C   -1.16064076016220      1.35574011982266      1.19199582649434
  O   -0.74264472094837      2.34711383949308      1.71756062567770
  C   -1.94768722665813      0.27146822985879      1.89894020845995
  H   -3.01032327142396      0.51379716888666      1.82158674014281
  H   -1.79117532244298     -0.69822128114250      1.42891753775433
  H   -1.66349594018379      0.25831971045861      2.94907947043789
