10
Coordinates from ORCA-job isopropyl_opt+freq
  C   0.85299176741462      0.77842264505265      0.23093167495618
  H   0.40677201524115      0.89133024377488      1.20745806400451
  C   1.49760353951137     -0.51151212370111     -0.11929540948429
  H   1.38693645270272     -0.73398371996430     -1.18249499343996
  H   2.57704336904406     -0.49219593549031      0.07857012113257
  H   1.08259937461524     -1.34248156546583      0.44671961350184
  C   1.10663358887155      1.99024364992366     -0.58716522286946
  H   0.99386736968742      1.77982538751684     -1.65259482163320
  H   0.43453177597306      2.80551097424872     -0.32883820887435
  H   2.13115974693882      2.36127644410481     -0.45527681729384
