10
Coordinates from ORCA-job methylisopropenyl_opt+freq
  C   0.86969908337949      0.63031980404974     -1.79849694733241
  O   0.11686401523741      0.77416400287493     -2.67348225623461
  C   1.74619583844676      0.46621469494825     -0.80637081320040
  C   1.33106395726209      0.24961077016598      0.52091346170001
  H   0.29091751801220      0.20635861223421      0.79358607513211
  H   2.07598852249642      0.12356484261411      1.28772820857830
  C   3.21210006841863      0.52505958656625     -1.17974702475260
  H   3.70202079907767      1.33026739003810     -0.63568180884964
  H   3.69951275164009     -0.41268750015755     -0.92006274472779
  H   3.35636344602923      0.69833779666599     -2.24298415031298
