10
Coordinates from ORCA-job methacrolein_H_loss_radical_opt+freq
  C   -1.12354783054953     -0.20343464479734     -0.33455635297931
  O   1.24106946153873     -0.08576571034595      0.17263083199446
  C   0.29785379464830      0.19419884082043     -0.48164651567550
  C   -2.14759306026222      0.75433497204189     -0.85012233807482
  H   -3.14869675854854      0.34745548069744     -0.73617114491159
  H   -2.09656509801028      1.70096728444475     -0.31311259306317
  H   -1.97260051884807      0.97233219305764     -1.90246888312539
  C   -1.37953217725957     -1.42274711684987      0.14095900449331
  H   -0.58190715938913     -2.06442399140347      0.48353208183668
  H   -2.38928965331968     -1.80641530766552      0.17851990950534
