13
Coordinates from ORCA-job 2-methyl_propanal_GS_opt+freq+SP_extrapEP3_job2
  C   1.13021793953151      0.31112023189060     -0.11145958774281
  O   2.33063010318714      0.41096933368715     -0.10150768995295
  H   0.49473586616610      1.21849057514872     -0.13092275377958
  C   0.36586387665457     -0.98506030386112     -0.08591584454653
  C   1.28037753231119     -2.19375884658888     -0.12066942358914
  C   -0.55418473764697     -0.97532375699370      1.13648259980173
  H   -0.27143450843625     -0.96314620857500     -0.97721554476702
  H   1.93070461701131     -2.20387173054354      0.75179451547376
  H   0.69596567321389     -3.11188751153276     -0.12693104508322
  H   1.91666480017467     -2.18156852173212     -1.00216530958079
  H   0.03103066559749     -0.95352454150280      2.05525108073200
  H   -1.21572809146330     -0.10998787709377      1.13423819046240
  H   -1.17327373630135     -1.86971084230277      1.15110081257213
