8
Coordinates from ORCA-job S0_min_acrolein
  C   0.42991980883222      0.44022883141329     -0.54324593020925
  O   0.47270556725778     -0.58028425824523      0.10285484198933
  H   0.47628123431636      1.42579747434395     -0.03685820199096
  C   0.31796995113352      0.49807375668856     -2.02104688180780
  C   0.20885915200888     -0.60013961340902     -2.76516289563452
  H   0.19381378071217     -1.57669309993682     -2.29600764192694
  H   0.12328056328213     -0.55434043910006     -3.84329328270281
  H   0.32507602845692      1.48509772424535     -2.47221273371706
