10
Coordinates from ORCA-job S0_min_propanal
  C   1.24920239008583      0.17057478021573     -0.16566571588814
  O   2.45119780288391      0.22787424211955     -0.19357117480681
  H   0.64244506418883      1.10471774398457     -0.14297214462857
  C   0.44271476691801     -1.10118321672839     -0.12994971424701
  H   1.12987780220525     -1.94823832624066     -0.15480845838812
  C   -0.46809465213073     -1.13729108955458      1.10406401765000
  H   -0.17449813042085     -1.13167588301378     -1.03587089842766
  H   0.12099616577260     -1.13303103176925      2.02303242772383
  H   -1.13772419753171     -0.27410619101280      1.12848557953183
  H   -1.08858701197114     -2.03443102800039      1.10069608148065
