114
Coordinate of the optimized geometric structure for Ag(dbp)(P2-nCB) at the BP86/def2-SVP//def2-ECP with accounting for relativistic effects the Def2-ECP pseudopotential for Ag, T1
C                 -4.41354000   -0.21993300   -2.89203400 
C                 -5.08873900   -1.41469800   -3.18946500 
C                 -4.55267800   -2.64831900   -2.77544700 
C                 -3.35147500   -2.68878700   -2.05393100 
C                 -2.68602200   -1.48785600   -1.73045500 
C                 -3.21171200   -0.25636000   -2.16694500 
C                  1.13254400   -4.77843500   -3.18441100 
C                  0.80935400   -5.05105500   -1.84712600 
C                  0.12763200   -4.09939300   -1.06795400 
C                 -0.22186300   -2.85249400   -1.61816100 
C                  0.11273700   -2.58232800   -2.96713200 
C                  0.77252000   -3.54016500   -3.74602700 
C                  2.27121900   -0.91060800    1.84462800 
C                  2.56694600   -2.08696100    2.56192300 
C                  3.88814900   -2.56097200    2.62731700 
C                  4.93066800   -1.85251600    2.00865500 
C                  4.64648100   -0.66597900    1.31193300 
C                  3.32565300   -0.20881700    1.21181500 
C                  0.34731300    2.48083800    2.77298900 
C                  0.77279600    1.16400900    3.04449100 
C                  1.33423100    0.85462400    4.30064900 
C                  1.43219100    1.84707600    5.28631900 
C                  0.98292000    3.15393000    5.02178500 
C                  0.44644600    3.47125300    3.76307800 
B                 -2.24758700   -3.35587300    1.44568100 
B                 -3.41742600   -2.90549100    2.71297000 
B                 -2.51026500   -2.14288400    4.07091800 
C                 -0.75314800   -1.19589200    2.13518600 
C                 -1.56183400   -1.88139300    0.96483000 
B                 -3.51774400   -1.16359000    2.98583000 
B                 -0.62381700   -2.88172900    1.97082000 
B                 -3.19972900   -1.86453900    1.30952300 
B                 -1.80372100   -3.52145600    3.16767000 
B                 -0.81169300   -2.09855200    3.54623100 
B                 -1.82491300   -0.62483100    3.35012200 
Ag                 0.05099300    0.64206800   -0.69299400 
P                  0.65955300   -0.03766000    1.65949100 
P                 -1.09588600   -1.44600100   -0.80897100 
C                  2.53355900    5.18373500   -2.59750300 
C                  1.43322800    5.81112900   -2.06377100 
C                  2.68513200    3.74996200   -2.54343500 
C                  1.64438300    2.97024600   -1.92358700 
N                  1.75340500    1.59736000   -1.83844900 
C                  2.83138800    0.95804100   -2.33820300 
C                  3.88527900    1.65929700   -2.95166500 
C                  3.80544200    3.06877300   -3.05497400 
C                  0.49522300    3.62193200   -1.37621200 
C                  0.38346500    5.06087000   -1.42917700 
C                 -0.74550100    5.65803100   -0.83758900 
C                 -1.72176000    4.86170800   -0.21520800 
C                 -1.55851900    3.45300700   -0.21142100 
N                 -0.49879300    2.86389200   -0.77808600 
H                 -4.81609400    0.74548000   -3.23401300 
H                 -6.03073300   -1.38819800   -3.75815000 
H                 -5.07421600   -3.58586100   -3.02144100 
H                 -2.92670000   -3.65354000   -1.73963500 
H                 -2.65972500    0.67079100   -1.94519100 
H                  1.66561500   -5.52699800   -3.78968500 
H                  1.08261100   -6.01807800   -1.39834400 
H                 -0.12993200   -4.34273900   -0.03244300 
H                 -0.15393800   -1.60662300   -3.40484700 
H                  1.02008700   -3.31280100   -4.79396600 
H                  1.77406400   -2.63692900    3.08173200 
H                  4.10317300   -3.48802700    3.18043100 
H                  5.96445400   -2.22453100    2.07026200 
H                  5.45542200   -0.09790600    0.82893100 
H                  3.10143000    0.70548700    0.63874300 
H                 -0.03956600    2.72882200    1.77413500 
H                  1.70379500   -0.16131100    4.50276800 
H                  1.86872200    1.60207100    6.26674100 
H                  1.06620800    3.93040600    5.79765600 
H                  0.11497800    4.49683900    3.54093400 
H                  3.33177500    5.77261300   -3.07606800 
H                  1.33932100    6.90754100   -2.10770500 
H                 -2.59845000    5.31273700    0.26908600 
H                 -4.44165900   -3.53067700    2.86095900 
H                 -2.78641800   -2.25980900    5.23987900 
H                  0.09767500   -1.99746900    4.32926500 
H                 -1.62964500   -4.59832200    3.68307300 
H                 -2.41850300   -4.22761500    0.63092000 
H                 -4.54216200   -0.62019700    3.31270600 
H                 -3.97378400   -1.52041400    0.46003600 
H                 -1.53555700    0.36504500    3.96807700 
H                 -2.78083900   -0.21229600    2.47338900 
H                  0.39509800   -3.38424700    1.60229600 
C                  2.81210300   -0.54780800   -2.20759500 
C                 -2.57847800    2.55886700    0.45934300 
H                  4.61614000    3.64237900   -3.52918400 
H                 -0.84688200    6.75434900   -0.85815100 
H                  2.23521200   -0.96554000   -3.06142300 
H                  2.19600100   -0.78636800   -1.31367900 
C                  4.15533800   -1.27387500   -2.10197700 
H                 -2.62688400    2.80619000    1.54346000 
H                 -2.19798900    1.51550700    0.39333000 
C                 -3.99163500    2.63320500   -0.13854400 
H                  4.83186100   -0.70990500   -1.42466400 
H                  4.66674000   -1.29986800   -3.09005600 
C                  3.98157700   -2.70189200   -1.56934600 
H                 -3.93213000    2.48832500   -1.23980000 
H                 -4.41120200    3.65313900    0.00501200 
C                 -4.93630900    1.59115500    0.46880800 
H                  3.27378400   -3.25537900   -2.22372100 
H                  3.48579300   -2.64838700   -0.57503400 
C                  5.29628300   -3.47301800   -1.44538900 
H                 -4.96755400    1.72552300    1.57308200 
H                 -4.50486200    0.58098700    0.30277700 
C                 -6.35474000    1.63900900   -0.10157100 
H                  5.99982200   -2.95549100   -0.75951100 
H                  5.80565500   -3.57220800   -2.42750700 
H                  5.13521800   -4.49531600   -1.04662700 
H                 -6.35144800    1.45263100   -1.19587800 
H                 -6.82729400    2.62987200    0.06565200 
H                 -7.00691900    0.87243800    0.36328100 
H                  4.75326700    1.11481800   -3.34556200 
