7
Coordinates from ORCA-job acetaldehdye_TD-CAM-B3LYP_S1_NTIa_TS_opt+freq
  C   -1.14062776456341      0.40785321232692     -0.53250775732771
  O   -1.30973715798594     -0.76110375550586     -0.35506874799908
  H   -1.13869483225241      1.29661273092911      0.11377241661457
  H   0.94225824082098      1.72646906343829      0.31572798371188
  C   0.75948178282699      0.72318752872043     -0.04940688594536
  H   1.07112018782572      0.54980501799636     -1.07325814346515
  H   0.97285754332807     -0.07634579790525      0.64641113441086
