10
Coordinates from ORCA-job acetone_TD-CAM-B3LYP_S1_NTIb_TS_opt+freq
  C   -1.23930922146321      0.71912041736826     -0.23435928253876
  O   -1.34149369643675     -0.11916666031976     -1.06197475125191
  H   1.08321368798757      1.00242152220042     -1.21278266090258
  C   0.96860020917732      0.67864674922203     -0.18617493559498
  H   1.03464770017277     -0.38664104054870     -0.01855364245365
  H   1.42607602206083      1.31102768232930      0.56416982400207
  C   -1.14294646731605      1.14424175257349      1.18265683483993
  H   -0.54031138194663      0.52027196048573      1.85979088162719
  H   -0.78700393238332      2.16984826377857      1.22423060014715
  H   -2.18100391985252      1.15145335291066      1.53377813212553
