13
Coordinates from ORCA-job butanone_TD-CAM-B3LYP_S1_NTIa_TS_opt+freq
  C   -1.02600467012721      1.09985672696989     -0.15905629314489
  O   -1.32027929552433      0.53214726598930     -1.16860088315538
  C   1.32245632134044      2.12235203691146     -0.48364955634663
  H   2.06981576209373      2.61128880329169      0.14260114960131
  H   1.61877827812967      2.17641007756565     -1.52995484493691
  H   0.40468731087117      2.74868118978968     -0.40697838805248
  C   1.01607537321626      0.74201704979560     -0.05054769153684
  H   1.06153327502337     -0.05897685165444     -0.77315373995149
  H   1.29710817925258      0.45431857163437      0.95466134824521
  C   -1.16284176597924      0.99475534173515      1.32216420809522
  H   -0.91669798007218      0.00489460416625      1.73081481274426
  H   -0.56237428447711      1.75226369381764      1.81527193414015
  H   -2.21448050374715      1.21117448998776      1.53058894429848
