8
Coordinates from ORCA-job glycolaldehyde_TD-CAM-B3LYP_S1_NTIa_TS_opt+freq
  C   -1.24299953531472      0.73722042369012      0.17632839828071
  C   0.69754369701309      0.34040448528666      0.44538811132176
  O   -1.35509206097271      1.08628706605507     -0.96521581758458
  H   1.02185293848019      0.43776759883762     -0.58649212093383
  H   -1.31457895687489     -0.21197657287337      0.71770565222666
  H   0.90798628033785     -0.60379806930149      0.93282692611169
  O   0.93368697511630      1.37804637836976      1.27981843236373
  H   0.80410966221490      2.21610068993563      0.81808741821386
