16
Coordinates from ORCA-job pivaldehyde_TD-CAM-B3LYP_S1_NTIa_TS_opt+freq
  C   -1.02122840860741      0.34730492391479     -0.50669241424351
  O   -1.21791539657065     -0.80457656157433     -0.24445327827501
  H   -1.07082862931974      1.32270683861244     -0.03317140565950
  C   1.06400646617027      2.20571706272291     -0.17809672501269
  H   0.61654454457946      2.74272545922762      0.65972154046612
  H   2.12518855029554      2.47338937273797     -0.20906486285882
  H   0.61925246921290      2.56886818132194     -1.10846550848728
  C   0.89719570205905      0.72338122989966     -0.04145625801687
  C   1.46755701713782     -0.07084355931770     -1.17785109255643
  H   2.54305566084102      0.12973330470012     -1.25962942334908
  H   1.32276927938772     -1.13861537309013     -1.02929975416276
  H   1.01592934359118      0.20821497042943     -2.13274676701617
  C   1.10876304210909      0.15269727174141      1.32136253710512
  H   0.68362566502746      0.79048597468516      2.09668259508975
  H   0.65949568082843     -0.83865130322336      1.39467040868361
  H   2.17892501325785      0.04493520721205      1.53164940829353
