8
Coordinates from ORCA-job acrolein_TD-CAM-B3LYP_S1_NTIb_TS_opt+freq
  C   -1.07373274760498     -0.30032585283370     -0.06030606401621
  O   1.37394863829575      0.12649179519739     -0.20417201353808
  C   0.23801496104022      0.02030864099304     -0.05647254478668
  H   0.00256064905712      1.64330892847390      0.91779990972609
  C   -1.54969926441772     -1.43664881877806     -0.69047913350508
  H   -1.70730259358888      0.34854798588090      0.52068918644504
  H   -2.58358257891870     -1.70823626744621     -0.56991450460071
  H   -0.90632306386280     -2.09069541148726     -1.25528083572437
