13
Coordinates from ORCA-job butanone_TD-CAM-B3LYP_S1_NTIb_TS_opt+freq
  C   -1.24415644550763      0.70677450915270     -0.26126763728954
  O   -1.32216320165223     -0.16306900881485     -1.05708713193056
  H   1.08083188202620      1.05968728472641     -1.17389974618001
  C   0.97001904314510      0.67980013872242     -0.16575911048309
  H   1.03431692761814     -0.39299958919742     -0.05778410482278
  H   1.43067458091626      1.27054220134014      0.61574914500405
  C   -1.18413747028580      1.16564826683492      1.16006533164549
  H   -0.58182867522476      0.53078599744665      1.82663215497507
  H   -0.75162180465264      2.16289139262233      1.16720477467946
  C   -2.62733636310502      1.21486985162656      1.67779631430575
  H   -3.23454721375950      1.89490992039667      1.08379356429925
  H   -3.08380624461842      0.22639865004954      1.64860390273951
  H   -2.61882901489970      1.55366938509394      2.71406354305740
