11
Coordinates from ORCA-job crotonaldehyde_TD-CAM-B3LYP_S1_NTIb_TS_opt+freq
  C   -1.00751908667286     -0.52621105547259      0.05626418415993
  O   1.12547655191646      0.60415383485311     -0.54719209099762
  C   0.14648702288970      0.13673992140673     -0.15506315290225
  H   0.27337062931160      0.81664034452180      1.60778807972679
  C   -1.64357857639530     -1.25156056298935     -0.94270644951139
  H   -1.43360327720223     -0.40773965131926      1.03918902981174
  H   -1.16272401846198     -1.36324522087667     -1.90372105634870
  C   -2.94675530632223     -1.92871762615908     -0.71564767931624
  H   -2.82915117900762     -2.98521285463111     -0.44429071024728
  H   -3.51358074161266     -1.45217324502163      0.08516016046097
  H   -3.56118201844288     -1.90601588431195     -1.61714531483593
