12
Coordinates from ORCA-job diacetyl_TD-CAM-B3LYP_S1_NTIb_TS_opt+freq_final_redo
  C   -1.17883123700000      1.36651331800000     -0.44592324800000
  O   -1.68816677100000      0.51752920100000     -1.12162570800000
  H   0.80943737100000     -0.05205878200000     -0.56019668300000
  C   0.85667925000000      0.51431161500000      0.28678559700000
  H   0.88352045700000      0.03631343500000      1.21011929600000
  H   1.25608240900000      1.52807177600000      0.30139033100000
  C   -1.13372763400000      1.38611210100000      1.17223388500000
  O   -0.80676710900000      2.43084006200000      1.69858021200000
  C   -1.90461970500000      0.24199074700000      1.82972495900000
  H   -2.95703333100000      0.45518790300000      1.90553865900000
  H   -1.84943279600000     -0.70297605000000      1.18075878200000
  H   -1.37884355400000      0.01998717100000      2.75350734400000
