9
Coordinates from ORCA-job methylglyoxal_TD-CAM-B3LYP_S1_NTIb_TS_opt+freq
  C   -1.07494752756549     -0.31331935204126      0.01085379736740
  O   1.14525107570648      0.51504633130939     -0.20865529928741
  C   0.43170264878167     -0.49514191598302     -0.42182282776189
  H   0.76596098813719     -1.50998495504648     -0.17301913481892
  O   -1.84371858990067      0.12444697083566     -0.77623788361414
  C   -1.39594750050285     -0.72547272706347      1.41554269744706
  H   -1.46325911226704     -1.81525980982760      1.43701414810247
  H   -0.58825217436871     -0.42543471569251      2.08037821557723
  H   -2.34544880802058     -0.29804582649071      1.73117228698819
