11
Coordinates from ORCA-job MVK_TD-CAM-B3LYP_S1_NTIb_TS_opt+freq_final_redo_2
  C   -0.91432369938804     -0.40826202448942     -0.43625949362116
  O   -0.07808279306889     -0.60252791178198      1.89891851004905
  C   -0.43627353860266     -0.34284646734821      0.82787671574364
  C   -1.49198928868352     -1.57076890945370     -0.92499945066815
  H   -0.84648948150732      0.48479614920407     -1.02798804401352
  H   -1.83884083815512     -1.59567602687575     -1.94286737719497
  H   -1.56707179136051     -2.46801310035586     -0.33317145070966
  C   0.32985064071167      1.96119002126407      0.79389173029892
  H   -0.63965990245710      2.31260077908823      1.11538072582173
  H   1.09296349181975      1.84259601640236      1.54655825915960
  H   0.65243220069170      2.22196047434620     -0.20241312486549
