16
Coordinates from ORCA-job pivaldehyde_TD-CAM-B3LYP_S1_NTIb_TS_opt+freq_final_redo_2
  C   -1.17103521142959     -0.04977191446371      0.05184807684833
  O   1.40349397611786     -0.34836237186679      0.04571726704773
  C   0.34992384137473     -0.06867349038539     -0.36202642724880
  H   0.12067810033829      1.36991123974468      0.77714605635591
  C   -1.57987254055289     -1.38090004150248     -0.63772685693021
  H   -1.39251276669382     -1.33954452043506     -1.70762769524536
  H   -1.03864187505324     -2.22692261398222     -0.21568655949137
  H   -2.64258716745912     -1.54055859618355     -0.46481009383844
  C   -1.91629562214966      1.09163372896375     -0.62414302155292
  H   -1.53070097323060      1.26318973862135     -1.62893799428286
  H   -2.96872014922816      0.82932356865121     -0.71297240058403
  H   -1.82909169192453      2.01662784270496     -0.05706453243685
  C   -1.52581736767393     -0.15493447533473      1.53677101376400
  H   -2.54352188738539     -0.54276409338213      1.64409388323864
  H   -0.85440710190555     -0.83663794626774      2.05750036343185
  H   -1.47400156314438      0.81964394511786      2.01773892092440
