7
Coordinates from ORCA-job acetaldehdye_TD-B3LYP_S1_NTIa_TS_opt+freq
  C   -1.10143471221629      0.39785271325288     -0.52299849206076
  O   -1.31995461781742     -0.76446994676040     -0.28588657639318
  H   -1.18628002080749      1.34312833532468      0.01572843847400
  H   0.93754454174708      1.69877670106487      0.37096297914029
  C   0.76421919212098      0.71094910535437     -0.03994217096926
  H   1.04953679143777      0.59707666301159     -1.08282789816010
  H   1.01302682553535     -0.11683557124799      0.61063371996902
