13
Coordinates from ORCA-job butanal_TD-B3LYP_S1_NTIa_TS_opt+freq
  C   -0.99038150949639      0.60778272361934     -0.77720032567394
  O   -0.59860258490549      0.13515603610111     -1.81781450490457
  H   -1.42081264066636      0.24690598399514      0.15591491236572
  C   0.97343493419290      2.15226755990405      0.03426246691519
  H   1.29796417758808      2.19082872183732     -1.00650750592462
  H   0.10837953064930      2.81995156377937      0.11996236065132
  C   0.57964865093009      0.75335450632695      0.39177250613379
  H   1.19273372871173     -0.05620127387493      0.01156425972943
  H   0.27370402615684      0.61043776583683      1.42593056693395
  C   2.09097597980329      2.68248042197789      0.95699607888948
  H   1.76945602073641      2.69197352818487      1.99968210659791
  H   2.98562623427122      2.06276260285495      0.88266796367212
  H   2.35406645202838      3.70318485945711      0.67057411461422
