4
Coordinates from ORCA-job formaldehdye_TD-B3LYP_S1_NTIb_TS_opt+freq
  H   -0.69522607210426      0.05451577773572      0.07363480015376
  O   1.39203057930486     -0.10017700023443     -0.05247312522797
  C   0.30207838931770      0.23109927787396     -0.39738202806310
  H   -0.06232089651831      1.36239394462475      0.64503435313731
