55
 
C  3.22169    -1.08774    -1.01417
C  3.62428    -1.20716    0.463523
C  4.39786    0.0399608   0.874041
C  3.537      1.28863     0.691136
C  3.15257    1.4147      -0.794415
C  2.46561    0.18663     -1.41351
H  4.72482    -0.0442405  1.9169
H  4.14718    -1.10518    -1.6
H  2.64796    -1.9659     -1.31979
H  2.55713    2.31683     -0.950032
H  4.08448    1.56996     -1.34967
H  5.30891    0.134913    0.272766
C  2.43248    -1.34138    1.41368
H  1.70204    -2.04048    0.99962
H  2.79032    -1.76982    2.35802
C  2.26094    1.1743      1.52016
N  1.77228    -0.0815799  1.68255
O  1.67974    2.14492     1.95744
H  0.920433   -0.125196   2.22197
C  4.49136    -2.45457    0.61616
H  4.86499    -2.55699    1.63641
H  3.93211    -3.36065    0.373266
H  5.35534    -2.4136     -0.0488825
C  4.3073     2.53456     1.11215
H  4.59719    2.48669     2.16233
H  5.21895    2.62777     0.519058
H  3.71563    3.43759     0.975225
C  2.48833    0.32604     -2.94676
H  1.95507    1.21936     -3.27482
H  3.51746    0.40309     -3.30102
H  2.02776    -0.538841   -3.42436
C  1.0194     0.0637907   -1.03565
C  -0.955108  -0.583214   -0.665006
C  -0.933056  0.800371    -0.545007
C  -8.24014   -0.809359   0.200384
C  -6.99738   -1.39912    0.109233
C  -5.8188    -0.627597   0.173008
C  -5.95294   0.766176    0.331637
C  -7.20873   1.3485      0.402817
C  -8.35412   0.568685    0.344156
C  -4.53417   -1.22963    0.0626214
C  -3.21739   0.86081     0.00136153
C  -3.2888    -0.552053   -0.128074
C  -2.13287   -1.27812    -0.468105
H  -2.15198   -2.35287    -0.586818
C  -2.03782   1.55664     -0.218969
H  -9.12737   -1.42581    0.150492
H  -6.93371   -2.47147    -0.0206328
H  -7.29217   2.42293     0.50968
H  -9.32679   1.03651     0.406919
H  -1.99042   2.6334      -0.125546
O  0.328546   1.20618     -0.807015
N  0.317489   -1.01116    -0.989522
S  -4.57567   1.82132     0.549542
O  -4.49522   -2.55752    0.019546
