74
symmetry c1, S1
N       18.507700000     17.223652000     21.843381000
C       17.233154000     16.817046000     21.491371000
C       16.875498000     15.890341000     20.509369000
H       17.619799000     15.420842000     19.875441000
C       15.519990000     15.576053000     20.412912000
H       15.200407000     14.846675000     19.679736000
C       14.583792000     16.163036000     21.265902000
H       13.539160000     15.879818000     21.191529000
C       14.962974000     17.092478000     22.252108000
H       14.214477000     17.516897000     22.909418000
C       16.300799000     17.413862000     22.375705000
C       17.080257000     18.222575000     23.311248000
C       16.781713000     18.975145000     24.430306000
H       15.762640000     19.082846000     24.785202000
C       17.839366000     19.606765000     25.113952000
H       17.613719000     20.215110000     25.983331000
C       19.170454000     19.482868000     24.692963000
H       19.953632000     20.001513000     25.235161000
C       19.502161000     18.709268000     23.585823000
H       20.525621000     18.592861000     23.242644000
C       18.439652000     18.071808000     22.923226000
C       19.720798000     16.760845000     21.251181000
C       19.986485000     17.037591000     19.910017000
C       20.615942000     16.049677000     22.052872000
C       21.218310000     16.655004000     19.391427000
C       21.821233000     15.646465000     21.506784000
C       22.150961000     15.985956000     20.190993000
H       19.264550000     17.582437000     19.307432000
H       20.364295000     15.800416000     23.077193000
H       21.458722000     16.871150000     18.359418000
H       22.536815000     15.084295000     22.097971000
C       23.515004000     15.638498000     19.711290000
C       24.634134000     16.008113000     20.460999000
C       23.746420000     14.925378000     18.537342000
C       25.957625000     15.651579000     20.041331000
C       25.071626000     14.550095000     18.143618000
C       26.182481000     14.898388000     18.895970000
H       27.185688000     14.616246000     18.590981000
C       24.989512000     13.848599000     16.864405000
C       22.820108000     14.446082000     17.510769000
C       26.910114000     16.352206000     20.896580000
C       24.754097000     16.909216000     21.614464000
N       23.611760000     13.809420000     16.553976000
C       23.062908000     13.209249000     15.351687000
H       23.923584000     12.815492000     14.796919000
H       22.598876000     13.992143000     14.738855000
C       22.049983000     12.102648000     15.665064000
H       22.414553000     11.552828000     16.540341000
H       21.100252000     12.556272000     15.967151000
C       21.847655000     11.134726000     14.501133000
H       21.213271000     10.303310000     14.833924000
H       22.823333000     10.698774000     14.243674000
C       21.224665000     11.783365000     13.265386000
H       21.029203000     11.040408000     12.484938000
H       20.269641000     12.261556000     13.510125000
H       21.886910000     12.547888000     12.839918000
N       26.127255000     17.063745000     21.822502000
O       25.878524000     13.392849000     16.156625000
O       21.596362000     14.568259000     17.417842000
O       28.135151000     16.416102000     20.844413000
O       23.891282000     17.481195000     22.285891000
C       26.690626000     18.041406000     22.729055000
H       27.446175000     18.612156000     22.174661000
H       25.874142000     18.714580000     23.010328000
C       27.328996000     17.412076000     23.959858000
H       26.561321000     16.846616000     24.504524000
H       28.084669000     16.698018000     23.616145000
C       27.969131000     18.451666000     24.877664000
H       28.640152000     19.087046000     24.280954000
H       27.187695000     19.121253000     25.267803000
C       28.752034000     17.817218000     26.027364000
H       28.143159000     17.086278000     26.571702000
H       29.627843000     17.284723000     25.647379000
H       29.100239000     18.559145000     26.752457000
