7
Coordinates from ORCA-job acetaldehyde_RI-B2GP-PLYP-D3BJ_def2TZVP_optTS
  C   -1.21506356845771      0.38678984947054     -0.42504159390642
  C   0.70215223151872      0.68647798541444      0.18677529087835
  O   -1.62915901766269     -0.57448691536157      0.16575692723727
  H   0.97411867258958      1.52029734211234     -0.44168796920503
  H   -1.44329985658184      1.43587614657073     -0.12186890835051
  H   0.59490140866991      0.88092307851814      1.24263230252113
  H   1.10035012992403     -0.27687748672462     -0.08756604917478
