14
Coordinates from ORCA-job MIPK_NTI_CH3CO_govt_opt+freq
  C   0.56900547839997      0.31758662722225      0.28620010298853
  C   1.62368518832932     -0.78006346477827      0.25484906333006
  O   2.52921345327870     -0.88152675293827      1.04453448454435
  C   2.55237429608896     -0.21645421193503     -1.49799398081583
  C   3.60417751595843      0.53362994956595     -1.31952803250982
  H   -0.11072581442757      0.05877926544714      1.09745567622344
  H   0.00783927251972      0.35686119027163     -0.63990270583125
  H   1.02174472758269      1.28708412882987      0.49515541350943
  H   3.93520650234020      0.81761421468997     -0.33029846755274
  H   4.18187041046433      0.88738126240690     -2.16850797306353
  C   1.84093318551529     -0.86807335130312     -2.60277167738204
  H   2.32435531619281     -0.61648282152993     -3.55013354224095
  H   1.85598398223983     -1.94966578885327     -2.48161817573549
  H   0.80022265051731     -0.55261646209582     -2.65237825046413
