11
Coordinates from ORCA-job MVK_NTI_CH3CO_govt_opt+freq
  C   0.49179580559389      0.10864305250950      0.19974898988072
  C   1.77975421627466     -0.68387791387694      0.38135198488098
  O   2.63019897120480     -0.45382755722810      1.19835480788489
  C   2.65339818339604     -0.12294672281187     -1.42016679596726
  C   3.80737785757147      0.47628824520944     -1.36445329560768
  H   -0.16233953466006     -0.20327031352811      1.01335231528879
  H   0.01246312300816     -0.12601309394926     -0.74328239545031
  H   0.67322039905047      1.18038304567590      0.27841865208901
  H   2.01376301063742     -0.52557519385595     -2.18680930630390
  H   4.25132154282399      0.75579205253268     -0.41872651170891
  H   4.35656009109916      0.70835340932271     -2.27127814998632
