16
Coordinates from ORCA-job pentanal_NTI_HCO_govt_opt+freq
  C   -0.53801091923458      0.17425871661570      0.01360856989332
  C   1.34727251372795      0.54553580151329      0.65551079598038
  O   -0.98483254286402     -0.72290582746958      0.68158674344125
  H   1.55573962123654      1.43409537307780      0.07222246897470
  H   -0.78394323221413      1.24804592683030      0.18264475532728
  H   1.15264140036889      0.73409434113799      1.70394866753048
  C   2.10164833109018     -0.69090181579302      0.30929983998009
  H   2.01928570930261     -0.88523380903757     -0.76085463444589
  H   1.66527434251554     -1.54502966755224      0.82608462250622
  C   3.58366241820971     -0.57013392928827      0.68600186443927
  H   4.01753033756221      0.29366132031412      0.17967736170654
  H   3.66908406271230     -0.37872443019778      1.75672082996794
  C   4.36244691658214     -1.82623979348080      0.32246354452347
  H   5.41168088980996     -1.73227744879340      0.59650669745381
  H   3.95860067390191     -2.69728741904347      0.83681353824468
  H   4.31191947729279     -2.01995733883309     -0.74823566552356
