50
Optimized T1 geometry
C                                 -0.40851956        1.24301674        0.00000000
C                             0.88418144        0.71379874        0.06519300
C                                    1.20940144     -0.42473626     -0.67430000
C                                    0.25353144     -1.01430426     -1.51132700
C                                 -1.04489256     -0.48561226     -1.58211500
C                                 -1.37297956        0.63460274     -0.80535600
S                                    0.70053744     -2.40506226     -2.52229700
C                                 -0.75194856     -3.42269726     -2.33945500
C                                 -2.04979256     -2.89163326     -2.46858600
S                                 -2.28435056     -1.13260126     -2.69112300
C                                 -0.55853856     -4.79296426     -2.12275100
C                                 -1.65379856     -5.65349226     -2.07342600
C                                 -2.94047256     -5.14046026     -2.22320600
C                                 -3.16234856     -3.76730126     -2.41535500
C                               -4.54637356     -3.27204926     -2.60585100
C                                 -6.91363856     -3.26489026     -2.12626500
C                                 -8.10180656     -3.69916026     -1.44393200
C                                 -8.10138656     -4.83509426     -0.61144300
C                                 -9.26264156     -5.38722526     -0.09179400
C                               -10.53054556     -4.82831226     -0.39443700
C                               -10.59851756     -3.65730626     -1.13022900
C                                 -9.40887756     -3.00813526     -1.61236700
S                               -12.23712456     -3.15764726     -1.51949500
C                               -12.16979556     -1.44370226     -1.84508700
C                               -10.97508656     -0.70991326     -2.02861800
S                                 -9.34861956     -1.34088626     -2.09227100
C                               -13.41205956     -0.78134926     -1.93748100
C                               -13.47251556        0.57949474     -2.19315100
C                               -12.28469056        1.31847874     -2.36419300
C                               -11.05973056        0.68092174     -2.28467800
C                                 -5.61082256     -3.77713626     -1.87172800
N                                 -7.04910656     -2.28325126     -3.06445900
C                                 -5.96544856     -1.85545826     -3.69232500
N                                 -4.72045756     -2.30104326     -3.53811900
H                                 -0.67189356        2.12516274        0.58809600
H                                    1.63848444        1.17928974        0.70368700
H                                    2.20841144     -0.86199926     -0.61314900
H                                 -2.39142256        1.02767374     -0.84541400
H                                    0.45792044     -5.17368926     -2.00493400
H                                 -1.50214556     -6.72520126     -1.92783100
H                                 -3.79881056     -5.81486426     -2.22077000
H                                 -7.15486156     -5.33637626     -0.40694100
H                                 -9.20583956     -6.28240226        0.53048400
H                               -11.44683756     -5.31252826     -0.05277400
H                               -14.32996256     -1.35634026     -1.79263000
H                               -14.44263956        1.07679874     -2.25338400
H                               -12.32766056        2.39171974     -2.55914500
H                               -10.13341456        1.24409074     -2.42420100
H                                 -5.42949956     -4.51899726     -1.09580400
H                                 -6.11050256     -1.05421626     -4.42901100
