28
Coordinates from ORCA-job optfreq_coin21
C    4.27991074680356   -1.06375940370183    0.01718803402552
C    4.39755746703502    0.32554292123023    0.03401887368755
C    3.27111806979848    1.12878451368743    0.02191415806176
C    1.99933441922267    0.55961295817400   -0.00518597758850
C    1.88348046505211   -0.86586681861157   -0.01329701324052
C    3.03488155507028   -1.65777942031281   -0.00536131788043
N    0.84017050194790    1.31950213453870   -0.02289480895502
N    0.64545553114378   -1.37726724051773   -0.02543657716318
C   -0.47808186662645   -0.69188473018736   -0.01204878774532
C   -0.39914526271302    0.73676097639180   -0.00552484416589
C   -1.78396904161621   -1.32407995177701   -0.00607630913656
N   -1.47124443458215    1.47515212213440    0.01604639732554
C   -2.72838663518017    0.93663120999243    0.03508708630297
N   -2.85708983222803   -0.44688260995319    0.00657527679322
O   -3.72257010659799    1.64565703999968    0.07408251763989
C   -4.21102432191322   -0.98713325060308    0.00889227758895
H    5.16798443410037   -1.68309681282262    0.02391974434338
H    5.37628145912209    0.78718047359585    0.05724436131545
H    3.38298137493886    2.20366008310632    0.03545604523739
H    2.91825204194953   -2.73338766829034   -0.01526476173739
H   -4.78050005530258   -0.54786863517970   -0.80761123108276
H   -4.70580323640045   -0.75730537744331    0.95208399225045
H   -4.14458478298816   -2.06227330579782   -0.11889014804996
C    0.95378424004256    2.77290842982025   -0.05019326607771
H   -0.04345533743455    3.19215965081560   -0.11368842033801
H    1.53613399453171    3.07617162291252   -0.92010071453278
H    1.44313966504219    3.12404588160678    0.85898426625489
O   -1.92632605221816   -2.53905379280765   -0.01344885313294
