91
 
C  -1.70748    -1.3614     -5.55756
H  -2.60474    -1.67708    -5.01915
H  -1.95861    -1.41237    -6.62276
C  -1.41783    0.118298    -5.258
C  -1.57647    0.419915    -3.79801
N  -2.15784    -0.268507   -2.88494
C  -2.02264    0.486786    -1.73524
C  -2.40368    0.250073    -0.429355
C  -2.09646    1.21809     0.543118
C  -1.4153     2.40308     0.163418
C  -1.04577    2.64405     -1.1504
C  -1.35509    1.65967     -2.06153
O  -1.08756    1.61757     -3.3805
H  -0.524076   3.54811     -1.43607
S  -0.909295   3.62532     1.31064
C  -1.64696    3.14618     2.8196
C  -2.31393    1.91477     2.98918
C  -2.80547    1.61024     4.27718
C  -2.62751    2.4761      5.33434
C  -1.96733    3.68558     5.14804
C  -1.4869     4.0144      3.88884
H  -0.975502   4.95721     3.73686
H  -1.8302     4.37133     5.97243
H  -3.01037    2.21087     6.31037
H  -3.33499    0.681772    4.44624
C  -2.47661    1.01131     1.90711
O  -3.07807    -0.144249   2.17822
H  -2.91914    -0.66607    -0.176248
C  -0.0106531  0.49108     -5.75844
H  0.266699    1.494       -5.42954
H  -0.0517923  0.53027     -6.85269
C  1.088       -0.514558   -5.3805
C  1.18306     -0.591698   -3.85587
O  1.77532     0.278956    -3.22329
N  0.574875    -1.61865    -3.25539
C  -0.263354   -2.63175    -3.8519
C  -0.57499    -2.37848    -5.32558
C  0.7112      -1.8726     -5.96625
H  0.592116    -1.77904    -7.05183
H  1.51775     -2.59677    -5.80529
C  -1.0073     -3.7029     -5.95147
H  -1.23861    -3.58026    -7.01085
H  -1.89867    -4.10226    -5.4631
H  -0.22       -4.45447    -5.87026
H  -1.18787    -2.69684    -3.27405
H  0.239825    -3.60125    -3.76156
H  0.626814    -1.64747    -2.23379
C  2.42186     -0.0381661  -5.94684
H  3.22581     -0.735042   -5.70623
H  2.69825     0.937467    -5.55206
H  2.36125     0.0352395   -7.03447
C  -2.45676    0.985912    -5.99204
H  -2.39344    0.812712    -7.06738
H  -3.46986    0.740783    -5.67069
H  -2.29225    2.04937     -5.81608
N  1.32239     0.346281    -0.202815
C  0.827945    -0.788606   0.303189
O  0.543929    -1.76556    -0.382235
C  0.64111     -0.859167   1.78596
C  0.924994    0.153921    2.56315
C  1.2085      1.12779     3.37471
C  2.53754     1.3535      4.05833
C  3.58966     0.36111     3.57689
H  3.75326     0.439284    2.50056
H  4.54327     0.547147    4.0741
H  3.29308     -0.665285   3.79554
C  2.30804     1.18216     5.56363
H  1.54876     1.87555     5.93096
H  1.97366     0.170101    5.79475
H  3.22993     1.37379     6.11703
C  2.98902     2.78607     3.76134
H  2.24112     3.5133      4.08372
H  3.15899     2.93571     2.69393
H  3.9203      3.01388     4.2837
H  0.418432    1.83179     3.6255
C  0.109945    -2.16652    2.33491
C  0.247936    -2.25933    3.82627
C  1.3797      -2.83158    4.39743
C  1.53747     -2.87732    5.77477
C  0.561127    -2.34544    6.60438
C  -0.571682   -1.77181    6.04565
C  -0.724503   -1.73202    4.66854
H  -1.60952    -1.2827     4.2362
H  -1.33899    -1.35389    6.68449
H  0.681175    -2.38071    7.67927
H  2.42301     -3.33121    6.20059
H  2.14687     -3.24739    3.75444
H  0.639828    -2.98937    1.85176
H  -0.937406   -2.2736     2.03918
H  1.50769     1.13497     0.390795
H  1.51196     0.420515    -1.19897
