6
Coordinates from ORCA-job acetyl_opt+freq
  C   0.55257799590931      0.30726954190481      0.34721456657009
  C   1.51557354635656     -0.83971017791601      0.48359035930160
  O   2.65624271268728     -0.81258394306588      0.78159690002452
  H   -0.28312870679300      0.13923354646920      1.02197527812588
  H   0.15924185420747      0.30917886335928     -0.66635408442190
  H   1.04025359763239      1.25533316924860      0.57026798039981
