5
Coordinates from ORCA-job glyoxal_H_loss_radical_opt+freq
  C   -1.12927839884767     -0.24650064151745      0.04113543675315
  O   1.40385869066861     -0.07838331099885      0.17306122739655
  C   0.25704958995363     -0.17321235383551      0.12655771871278
  O   -1.75855315795122      0.60184152065166     -0.61254904399083
  H   -1.57339472382335     -1.08585821429985      0.58292266112835
