13
Coordinates from ORCA-job butanal_S1_min_RI-B3LYP_TZVP_opt+freq
  C   1.10907073432944      0.54245693738058      0.01155503511692
  O   2.04019044005990      0.75928347890776     -0.86298809615695
  H   0.57294641879152      1.43688035743717      0.34474627847574
  C   0.33270086605981     -0.75471473391935     -0.07425182376228
  C   1.20043291434293     -2.00456710607213      0.10667749326475
  H   -0.44321827496161     -0.70994133594583      0.69226020635021
  H   -0.17317470088215     -0.81044082043275     -1.05213764307863
  H   1.71592343463306     -1.94248154099566      1.06825512465394
  C   0.36742298450039     -3.28129097401225      0.03612895471940
  H   1.97521748333286     -2.01797625833647     -0.66328569176840
  H   -0.40584110512316     -3.29270425544203      0.80842026724372
  H   -0.12904024360110     -3.37552400526043     -0.93275893431213
  H   0.99200612251811     -4.16513457930860      0.17787689025369
