11
Coordinates from ORCA-job crotonaldehyde_S1_min_RI-B3LYP_TZVP_opt+freq
  O   0.89796810551148     -0.02389043199697     -0.01903886189376
  C   2.17212279220038      0.04394957016206      0.14990151579491
  C   2.90281174021409      0.37814681792478      1.27317128432445
  C   4.28740839547327      0.41305100736437      1.31852891052521
  C   5.05901145003640      0.78358885516945      2.53343390741729
  H   2.69624534760157     -0.22508374027828     -0.78499716065129
  H   2.33405349788192      0.63225050819959      2.16110873764926
  H   4.84890642559628      0.15266110570088      0.42773785940552
  H   4.39991972335467      1.07922976359392      3.35142394477058
  H   5.74707957732028      1.61556737287645      2.34015717254936
  H   5.68204294480969     -0.04630082871623      2.89213269010845
