4
Coordinates from ORCA-job formaldehyde_S1_min_RI-B3LYP_TZVP_opt+freq
  C   1.01542503594920     -0.10798048490713      0.04911436658694
  O   2.30617598268952     -0.15094895650670     -0.02320229302405
  H   0.53702056094353     -0.75435300990580      0.78997599917400
  H   0.53726742041776      0.85022885631964     -0.17302359273689
