9
Coordinates from ORCA-job methylglyoxal_S1_min_RI-B3LYP_TZVP_opt+freq
  C   0.96176347957656     -0.08056081395998     -0.04232440614580
  C   2.48291118069515     -0.08522435339563      0.04425282362603
  O   3.04004106503568      0.47839694227780      0.98444519006965
  C   3.18968664032425     -0.78017480266905     -1.04680600428717
  O   2.61190257451216     -1.34355329261044     -1.98261150850613
  H   0.61473368691967      0.94490787507137     -0.17700070895313
  H   0.54394537287145     -0.47256724986836      0.88479670116666
  H   0.69117715202141     -0.69967102344183     -0.89864523698167
  H   4.28211603404365     -0.75998247940389     -0.96359571698843
