13
Coordinates from ORCA-job butanal_NTI_H_govt_opt+freq
  H   -1.31593401183889     -1.17251567450284     -0.12714526895626
  C   -1.18328947850861     -0.10833188986936      0.08508909407739
  H   -1.27202449870701      0.02147838724210      1.16516264527377
  O   1.24697823307307     -0.21479650165575      0.25411749338510
  C   0.27165138645679      0.13891581341041     -0.33994467775613
  H   0.21182463159700      1.75674325258119      0.05228991182726
  C   -2.20950794463936      0.70915169075819     -0.67701631031547
  H   -2.07934194394679      1.76601947981317     -0.44226966046563
  H   -2.02450304645950      0.60242736376543     -1.74555989747351
  C   -3.63092034896541      0.28004193932345     -0.34594595690551
  H   -3.83475912424417      0.38184473496943      0.71940557925142
  H   -4.35764275083269      0.88629807434838     -0.88270581006860
  H   -3.79953110298443     -0.76127667018380     -0.61847714187383
