6
Coordinates from ORCA-job glyoxal_NTI_H_govt_opt+freq
  C   -1.13248026771688     -0.15530081625294     -0.05903654858946
  O   1.22919382876928     -0.49444638556018      0.39605061101530
  C   0.39670156012842      0.26209834049815      0.03592200902692
  O   -1.99913904578486      0.56607470322156     -0.43198311193876
  H   -1.29459530268671     -1.16053879988809      0.37017536631601
  H   0.34491918229075      0.17378418898151     -1.80540378283001
