61
Cartesian (xyz) coordinates in Angstrom of GS and ES structures obtained at the LH12ct-SsirPW92/def2-TZVP(gridsize3) level of theory. T1
Os   -0.0254243    0.0154834   -0.0016409
N    -0.8418821    1.6681134    0.9993429
C    -1.8151483    3.9876108    2.2084001
C    -1.7287836    1.6018763    2.0134717
C    -2.2343039    2.7303223    2.6438499
C    -0.9081755    4.0646615    1.1565500
C    -0.4328078    2.8912884    0.5634731
H    -2.1883634    4.8924702    2.6781497
H    -2.0265429    0.6088890    2.3287700
H    -2.9402347    2.6185418    3.4599881
H    -0.5763911    5.0327936    0.8028529
N     0.8320485    1.6141367   -1.0180362
C     1.9611119    3.8643355   -2.2161237
C     1.6970170    1.4887147   -2.0466443
C     2.2739721    2.5844879   -2.6733456
C     1.0758378    3.9994935   -1.1510649
C     0.5177739    2.8605104   -0.5652908
H     2.4010410    4.7432449   -2.6774944
H     1.9208808    0.4775794   -2.3626463
H     2.9611396    2.4279739   -3.4980034
H     0.8276111    4.9860055   -0.7801948
N     0.9402234   -1.4627626   -1.0551713
C     2.4495521   -3.4769522   -2.2894804
C     0.4410391   -2.1681695   -2.1069939
C     1.1394758   -3.1571277   -2.7510541
C     2.9697575   -2.7968300   -1.2194076
C     2.2164924   -1.7750095   -0.5724828
H     3.0280298   -4.2539220   -2.7788989
H    -0.5538636   -1.8932944   -2.4371100
H     0.6945030   -3.6745143   -3.5928251
H     3.9620412   -3.0374950   -0.8582764
N     1.7432389   -0.0843078    1.0463050
C     4.2442101   -0.3918237    2.2730375
C     2.1071373    0.6954857    2.1003474
C     3.3146843    0.5812723    2.7412767
C     3.9115094   -1.1777083    1.2004763
C     2.6483455   -1.0320533    0.5580390
H     5.2073585   -0.5073453    2.7597548
H     1.3723004    1.4187785    2.4341634
H     3.5423017    1.2214584    3.5854441
H     4.6141256   -1.9162131    0.8347220
N    -1.8633947   -0.1108437   -1.0009487
C    -4.3517234   -0.4497601   -2.2192126
C    -2.2482221    0.6794068   -2.0241069
C    -3.4748129    0.5419964   -2.6590611
C    -3.9662362   -1.2626043   -1.1582191
C    -2.7163554   -1.0764510   -0.5603884
H    -5.3187598   -0.5879514   -2.6929834
H    -1.5382055    1.4328894   -2.3440964
H    -3.7296317    1.2008034   -3.4824442
H    -4.6363830   -2.0350019   -0.8021923
N    -0.9780430   -1.5209736    1.0243524
C    -2.3648755   -3.6070204    2.2471118
C    -0.4363448   -2.1974686    2.0589903
C    -1.0981802   -3.2366892    2.6979671
C    -2.9251390   -2.9183315    1.1754638
C    -2.2160809   -1.8738811    0.5766406
H    -2.9076898   -4.4206691    2.7185107
H     0.5521386   -1.8839968    2.3704198
H    -0.6191691   -3.7461584    3.5272838
H    -3.9057296   -3.1972143    0.8106845
