61
Cartesian (xyz) coordinates in Angstrom of GS and ES structures obtained at the LH12ct-SsirPW92/def2-TZVP(gridsize3) level of theory. T1
Rh    0.0000201   -0.0134044    0.0000274
N    -0.8048061    1.5567073    1.0520930
C    -1.8087235    3.9281870    2.2541459
C    -1.6343893    1.4993082    2.0798568
C    -2.1676652    2.6396739    2.7239602
C    -0.9568736    4.0290358    1.1885154
C    -0.4287939    2.8302589    0.5442304
H    -2.2057913    4.8180476    2.7330600
H    -1.9042638    0.5123972    2.4409563
H    -2.8385636    2.5054954    3.5659252
H    -0.6714281    5.0029265    0.8106487
N     0.8048861    1.5567091   -1.0520059
C     1.8083466    3.9281958   -2.2544221
C     1.6344586    1.4993111   -2.0797787
C     2.1675119    2.6396806   -2.7240594
C     0.9569848    4.0290368   -1.1884002
C     0.4289055    2.8302596   -0.5441167
H     2.2044094    4.8180712   -2.7341403
H     1.9046429    0.5123937   -2.4406301
H     2.8384411    2.5055026   -3.5660001
H     0.6722264    5.0029162   -0.8099864
N     0.9697538   -1.5023342   -1.0551910
C     2.4347337   -3.5260769   -2.2788202
C     0.4705722   -2.1652948   -2.1133050
C     1.1709750   -3.1813961   -2.7546199
C     2.9539858   -2.8378872   -1.1830169
C     2.2036298   -1.8238783   -0.5831620
H     3.0109792   -4.3167424   -2.7512186
H    -0.5128847   -1.8702537   -2.4577522
H     0.7266356   -3.6860580   -3.6065649
H     3.9353256   -3.0969313   -0.8045935
N     1.7780268   -0.1083184    1.0428608
C     4.2585066   -0.3818160    2.2710818
C     2.1099667    0.6615722    2.0941395
C     3.3384117    0.5554586    2.7373265
C     3.9152973   -1.1796675    1.1804016
C     2.6649631   -1.0276362    0.5769790
H     5.2291646   -0.4928495    2.7463428
H     1.3688323    1.3765513    2.4288037
H     3.5595191    1.1984905    3.5832153
H     4.6229974   -1.9105494    0.8087013
N    -1.7779943   -0.1082519   -1.0427990
C    -4.2584316   -0.3817632   -2.2711032
C    -2.1099027    0.6616361   -2.0940899
C    -3.3382979    0.5554651   -2.7373633
C    -3.9152996   -1.1795329   -1.1803388
C    -2.6649536   -1.0275530   -0.5769278
H    -5.2290450   -0.4928520   -2.7464422
H    -1.3688038    1.3766962   -2.4286599
H    -3.5593165    1.1983815   -3.5833632
H    -4.6230995   -1.9102543   -0.8085132
N    -0.9697459   -1.5023314    1.0552198
C    -2.4347439   -3.5261058    2.2787747
C    -0.4705548   -2.1653604    2.1132863
C    -1.1709733   -3.1814683    2.7545739
C    -2.9540238   -2.8378163    1.1830471
C    -2.2036347   -1.8238308    0.5831942
H    -3.0109560   -4.3168492    2.7510836
H     0.5129358   -1.8703908    2.4576984
H    -0.7266494   -3.6861477    3.6065165
H    -3.9354362   -3.0967237    0.8047186
