91
 
C  5.88632    1.31719     -0.856347
H  5.55052    2.20246     -1.40146
H  6.97566    1.40205     -0.771469
C  5.32423    1.347       0.572015
C  3.86455    1.68977     0.533436
N  3.26249    2.43574     -0.317035
C  1.94445    2.45106     0.100537
C  0.8202     3.04189     -0.425299
C  -0.405566  2.83888     0.218172
C  -0.466198  2.03858     1.37413
C  0.671635   1.4434      1.92106
C  1.84494    1.67843     1.25654
O  3.08057    1.22452     1.54292
H  0.621876   0.816423    2.80086
S  -1.9351    1.6909      2.24164
C  -3.168     2.52805     1.35343
C  -2.92619   3.30168     0.217623
C  -4.0131    3.92441     -0.408555
C  -5.29493   3.78452     0.0740643
C  -5.52117   3.00959     1.21031
C  -4.46972   2.3869      1.84584
H  -4.64852   1.7827      2.72663
H  -6.52367   2.89222     1.60024
H  -6.11995   4.27192     -0.426871
H  -3.82164   4.51895     -1.29083
C  -1.58491   3.50032     -0.380352
O  -1.46191   4.20143     -1.3643
H  0.863658   3.64767     -1.31896
C  5.6124     0.00676393  1.26869
H  5.11113    -0.0479526  2.23709
H  6.68647    -0.0142706  1.48381
C  5.29951    -1.25501    0.441248
C  3.79504    -1.30331    0.196846
O  3.04632    -1.83304    1.01097
N  3.33991    -0.679464   -0.89875
C  4.11339    -0.144789   -1.99996
C  5.59549    0.05006     -1.67597
C  6.04929    -1.17139    -0.886344
H  7.12661    -1.12109    -0.692892
H  5.88327    -2.08253    -1.4723
C  6.35955    0.156361    -2.99321
H  7.42621    0.303025    -2.81631
H  6.00597    0.998988    -3.59115
H  6.24515    -0.748209   -3.59269
H  3.66504    0.801512    -2.30886
H  4.03046    -0.829109   -2.85261
H  2.32323    -0.638173   -1.00331
C  5.73865    -2.48669    1.22449
H  5.23395    -2.55381    2.18609
H  6.81474    -2.44959    1.40405
H  5.5262     -3.40377    0.673601
C  6.00764    2.4768      1.36243
H  7.08323    2.30137     1.41399
H  5.84287    3.44236     0.884048
H  5.62956    2.53501     2.38405
N  0.130803   -1.76661    0.730249
C  -0.299442  -1.10666    -0.351558
O  0.433081   -0.433486   -1.06795
C  -1.75305   -1.22004    -0.692348
C  -2.51556   -2.11762    -0.123478
C  -3.2992    -3.01101    0.404009
C  -4.21867   -2.8011     1.58647
C  -3.89362   -3.84984    2.65337
H  -2.87745   -3.72891    3.03253
H  -3.98343   -4.864      2.25939
H  -4.57727   -3.76387    3.50033
C  -4.06083   -1.40025    2.16543
H  -4.72859   -1.26711    3.01895
H  -4.30333   -0.637619   1.42409
H  -3.04099   -1.21597    2.50604
C  -5.65434   -2.99478    1.08627
H  -5.80056   -3.99218    0.666969
H  -6.36575   -2.87436    1.90619
H  -5.89847   -2.26792    0.310583
H  -3.3417    -3.99073    -0.0693424
C  -2.2662    -0.300008   -1.77767
C  -3.73039   -0.493022   -2.04421
C  -4.1704    -1.4982     -2.89923
C  -5.52409   -1.71362    -3.10628
C  -6.46238   -0.921913   -2.45905
C  -6.0345    0.0855316   -1.60757
C  -4.67873   0.294767    -1.4025
H  -4.35373   1.08498     -0.737889
H  -6.75479   0.716104    -1.10223
H  -7.51941   -1.08586    -2.62332
H  -5.84792   -2.49879    -3.77727
H  -3.44309   -2.12125    -3.40657
H  -1.68158   -0.466805   -2.68536
H  -2.06416   0.733483    -1.48511
H  -0.493624  -2.36887    1.23615
H  1.1316     -1.8212     0.916894
