13
Coordinates from ORCA-job 2-methylpropanal_NTI_H_GS_radicals_asym_20A_opt+freq_fixed_opt+freq
  C   -6.24060546881781     -7.30751214195680     -0.57768651689432
  H   -6.58571040975006     -6.84135905884823      0.34810081644898
  O   -3.81620163991884     -7.40982228853718     -0.80030422941152
  C   -4.82112434920627     -6.79338408079865     -0.75562534555077
  H   5.25056190163933      9.09313165569778      1.20790631482908
  C   -7.10290382967457     -6.78967167336376     -1.72532652323778
  H   -8.13874744201086     -7.08538637566670     -1.57306760096241
  H   -7.05877513789314     -5.70556656582582     -1.79473649572819
  H   -6.76949057365636     -7.20617526321174     -2.67465969398075
  C   -6.27680308529182     -8.82443195739502     -0.44619194652239
  H   -7.29674589028089     -9.15982868444195     -0.26571390957980
  H   -5.91818232577971     -9.29550896696449     -1.35942330022350
  H   -5.65011717535900     -9.16525999668745      0.37413606681338
