9
Coordinates from ORCA-job propanyl_opt+freq
  C   0.80861158365963      0.84996630737776     -0.31779547031305
  O   0.24424331225152      1.53508799231157      0.45848849528154
  C   1.16861290639861     -0.61372619948765     -0.20008667828402
  H   0.42737184260215     -1.14235548325327     -0.80145442042590
  H   1.03890855810266     -0.91815976363952      0.84000735801144
  C   2.57056275402930     -0.90417546553329     -0.71494027114886
  H   3.31930498593284     -0.37791408775847     -0.12729172007292
  H   2.78157959152490     -1.96895965217310     -0.65346227860568
  H   2.67455846549841     -0.59206964784403     -1.75110701444255
