7
Coordinates from ORCA-job vinylcarbonyl_radical_opt+freq
  C   2.13342208286143      0.08824819953765      0.26863255217714
  O   1.71039344058887      0.05178336282115      1.34907164823510
  C   2.61012437586631      0.12927683496599     -0.97472681497312
  C   3.97409029455440      0.20518901839352     -1.31770949653198
  H   1.84299001452725      0.09885635195834     -1.73624746177640
  H   4.74276321282769      0.23580497944982     -0.56565170768123
  H   4.25581057877404      0.23331825287354     -2.35421971944952
