74
symmetry c1, T2
N       18.505434000     17.264751000     21.832976000
C       17.226867000     16.830511000     21.499897000
C       16.849707000     15.919980000     20.513633000
H       17.583694000     15.465142000     19.856041000
C       15.500095000     15.598315000     20.429238000
H       15.177549000     14.876102000     19.686725000
C       14.557358000     16.174191000     21.294099000
H       13.511525000     15.891302000     21.216229000
C       14.946815000     17.086052000     22.267714000
H       14.209262000     17.520087000     22.932586000
C       16.299113000     17.411000000     22.393252000
C       17.062990000     18.222227000     23.323044000
C       16.737586000     18.973076000     24.456427000
H       15.707545000     19.048359000     24.791092000
C       17.753396000     19.615485000     25.154062000
H       17.512724000     20.216400000     26.025813000
C       19.090555000     19.511062000     24.738057000
H       19.864971000     20.035261000     25.292799000
C       19.447368000     18.750754000     23.629455000
H       20.482234000     18.656735000     23.309677000
C       18.418534000     18.103737000     22.941082000
C       19.711541000     16.806040000     21.254150000
C       20.008956000     17.093614000     19.920133000
C       20.603223000     16.066398000     22.036392000
C       21.226655000     16.683452000     19.389082000
C       21.820359000     15.672562000     21.507290000
C       22.149680000     16.001382000     20.189022000
H       19.294365000     17.652139000     19.321854000
H       20.340627000     15.810534000     23.055790000
H       21.468424000     16.909187000     18.357700000
H       22.526430000     15.102111000     22.105205000
C       23.498719000     15.638246000     19.711979000
C       24.640743000     15.961122000     20.461542000
C       23.755164000     14.948320000     18.526187000
C       26.004071000     15.579320000     20.022823000
C       25.117113000     14.536495000     18.125438000
C       26.235544000     14.837600000     18.876369000
H       27.234633000     14.549571000     18.570286000
C       25.028680000     13.847626000     16.834857000
C       22.839559000     14.466118000     17.483473000
C       26.970015000     16.291834000     20.856994000
C       24.799194000     16.878343000     21.604129000
N       23.655507000     13.830183000     16.528700000
C       23.099323000     13.218894000     15.331664000
H       23.953737000     12.820233000     14.772417000
H       22.633804000     14.008075000     14.728683000
C       22.074736000     12.122000000     15.661243000
H       22.425321000     11.579032000     16.546373000
H       21.124314000     12.584774000     15.942935000
C       21.882594000     11.148555000     14.499307000
H       21.228057000     10.334020000     14.832333000
H       22.854401000     10.692488000     14.263677000
C       21.289973000     11.799155000     13.249967000
H       21.090748000     11.051111000     12.476232000
H       20.340563000     12.297143000     13.475619000
H       21.973786000     12.543916000     12.822067000
N       26.193776000     17.041886000     21.749099000
O       25.922738000     13.392919000     16.145732000
O       21.630406000     14.570912000     17.377035000
O       28.187623000     16.323213000     20.787736000
O       23.982846000     17.461816000     22.292744000
C       26.771274000     18.023454000     22.645596000
H       27.569920000     18.531504000     22.092383000
H       25.977354000     18.736869000     22.883168000
C       27.343440000     17.395828000     23.914691000
H       26.540721000     16.862566000     24.439403000
H       28.096803000     16.660099000     23.616924000
C       27.968278000     18.449688000     24.829079000
H       28.648357000     19.078122000     24.235745000
H       27.178778000     19.119297000     25.199181000
C       28.733827000     17.825651000     25.996141000
H       28.119322000     17.098622000     26.538290000
H       29.619996000     17.295789000     25.637365000
H       29.063751000     18.577978000     26.718241000
