10
azomethane
N 0.00000000 0.00000000 0.00000000
N 1.22915061 0.00000000 0.00000000
C 1.87275627 1.37687217 0.00000000
C -1.61279073 0.01401353 -0.00653607
H 2.62923902 1.39536387 -0.79264170
H 1.13534982 2.18398066 -0.12897983
H 2.39160980 1.47760052 0.95776512
H -1.88615071 0.21731351 1.02800251
H -1.91964069 0.83289353 -0.66933412
H -1.97129227 -0.96664721 -0.33283514
