8
Coordinates from ORCA-job acrolein_NTI_HCO_GS_radicals_asym_20A_opt+freq_fixed_opt+freq
  C   -10.10383918416324     -0.91785638339228     -1.12176710276627
  C   9.57839755641809      2.11559178218360      0.47927383708287
  O   -10.63156353628391     -1.91581731682352     -1.44419099808556
  H   -10.03188738515976     -0.54795403558687     -0.06965007146057
  H   9.95747637863437      1.11973403347207      0.62599965572531
  C   10.04287312427396      3.32861666635713      0.43010080832087
  H   9.40138420024691      4.18388163085830      0.25986427684822
  H   11.10290158334937      3.53657157769686      0.55879130913996
