13
Coordinates from ORCA-job butanone_NTI_CH3CO_GS_radicals_asym_20A_opt+freq_fixed_opt+freq
  C   9.17045223273610      1.00027330462645     -3.11451453765876
  O   9.38588777219628      2.15969343579947     -3.10854747207317
  C   9.70949474216576     -0.06030520971362     -2.19467091688167
  H   10.23177594501458     -0.80314103475353     -2.79252632275020
  H   10.37785614699962      0.37096137894189     -1.45056151944244
  H   8.87173713095478     -0.55839836370720     -1.71296278127870
  C   -10.09804725200308     -0.13719504004730      2.17018121132932
  H   -10.19345891321148     -0.65624402508399      1.23064307434044
  H   -9.77525862100181     -0.70676970798603      3.02610972768006
  C   -10.58395333229839      1.25497765528278      2.32241397686917
  H   -10.46014324368932      1.82735439587461      1.40452049107251
  H   -11.65159045114926      1.28676446172114      2.56953680208537
  H   -10.06362797235897      1.77786663473895      3.12320270790977
