12
Coordinates from ORCA-job diacetyl_NTI_CH3CO_GS_radicals_asym_20A_opt+freq_fixed_opt+freq
  C   -6.95969118086569      2.34157016917266      6.30285257272107
  C   6.76483615834370     -1.98205301481885     -7.51611532042315
  O   -7.21220206583849      1.60291853571994      7.18678131403240
  O   7.26038484905564     -0.91308915063806     -7.56542073994493
  C   -7.61463624579027      3.64995273311699      5.95550016806003
  H   -8.41626318611558      3.88334234339603      6.65503799305630
  H   -6.85739145231084      4.42988152034982      5.96904229777369
  H   -7.99910440871835      3.58508578127740      4.94057390395887
  C   7.35205591842298     -3.26708585682009     -7.00102169798963
  H   8.36981490222346     -3.11581958692993     -6.64367273723017
  H   6.71770608540306     -3.64051587236989     -6.20092914481735
  H   7.33363620219037     -4.00128865845604     -7.80263582019715
