9
Coordinates from ORCA-job methylglyoxal_NTI_HCO_GS_radicals_asym_20A_opt+freq_fixed_opt+freq
  C   -8.25466540815630      2.40586421221330      5.90574416188408
  C   7.01242136869534     -1.55486881386161     -6.40206119990643
  O   -7.80113210575987      1.31934579265977      5.97256547544310
  O   6.55983049867988     -1.64098193513408     -7.48194140680285
  H   7.24928297811325     -2.42409886125426     -5.74095362239539
  C   -7.63249011690911      3.65026138280174      5.33491603024299
  H   -7.58870469755525      4.40404204714400      6.11726690325821
  H   -6.63630145687217      3.44530595485698      4.94495535559715
  H   -8.27975967861875      4.03174749859293      4.54911727806851
