54
Cartesian coordinates of the studied states of 2CzPN, T1
C -0.567243583 -0.222606096 -1.462725667
C -1.840695208 0.052563428 -0.747515895
C 0.623552362 -0.169672011 -0.750034006
H 1.550574534 -0.295069786 -1.281872465
C -1.798856065 0.301605119 0.618318536
C 0.663448688 0.118467139 0.598337638
H -2.726167549 0.426742408 1.149723554
C -0.617260898 0.312958512 1.329602533
N -0.634952756 0.444814633 2.712985838
C -1.328834810 1.430675479 3.418023458
C -0.071591651 -0.437318463 3.643888069
C -1.169937488 1.208317703 4.793736078
C -1.740686306 2.085570061 5.702808936
C -2.457670840 3.170321581 5.229416623
C -2.595715422 3.386516536 3.859881049
C -2.031342766 2.526035881 2.934745174
H -1.624008534 1.927468431 6.762357553
H -2.910236379 3.857632985 5.924237188
H -3.152138028 4.240069392 3.510126250
H -2.138913508 2.707455385 1.879703694
C -0.369332687 0.012711593 4.936970417
C 0.064737051 -0.712644393 6.036574634
C 0.776070985 -1.880280047 5.829461132
C 1.034632787 -2.332468850 4.537028434
C 0.605993207 -1.626606252 3.427427599
H -0.159737445 -0.377772954 7.035970648
H 1.120392688 -2.454900995 6.672838465
H 1.572378640 -3.254819817 4.394116670
H 0.791299095 -2.001437750 2.437334209
N 1.883789030 0.281058227 1.242985397
C 2.302630163 1.403522239 1.968782555
C 2.954999821 -0.612390119 1.174053490
C 3.621444148 1.203415040 2.397631622
C 4.268767018 2.193387026 3.121916550
C 3.596383960 3.370512867 3.395044239
C 2.297008063 3.567975424 2.932079395
C 1.635966342 2.595454135 2.203781909
H 5.283687257 2.051984619 3.455480140
H 4.084975472 4.148982538 3.956555154
H 1.795608652 4.499205728 3.136360272
H 0.643236062 2.772655367 1.832032599
C 4.038187797 -0.086045916 1.893026628
C 5.212040064 -0.815574878 2.000532443
C 5.288827108 -2.056866508 1.393760886
C 4.199998624 -2.573358271 0.694387630
C 3.017442762 -1.864305942 0.577659110
H 6.050725209 -0.423620868 2.552102507
H 6.196137145 -2.632760682 1.465348642
H 4.276289040 -3.544333950 0.234098090
H 2.181085734 -2.276841973 0.041073683
C -3.072385352 0.007526498 -1.419193967
N -4.093326457 -0.025380942 -1.959790437
C -0.552718754 -0.475865509 -2.843354940
N -0.526196804 -0.686597905 -3.979344308
