36
 
N 0.0906788 -3.38547 0.857957
H 0.93071 -2.88672 1.08832
H -0.0890893 -4.26822 1.30071
C -0.842258 -2.86587 0.0257351
O -1.88191 -3.4426 -0.235706
C -0.514377 -1.54273 -0.562071
C 0.65604 -0.900779 -0.258437
C -1.53719 -0.903596 -1.46741
C -2.44204 0.032877 -0.703342
H -2.12545 -1.6905 -1.94085
H -1.02816 -0.355876 -2.26331
C -2.23962 1.40771 -0.745197
C -3.0524 2.26984 -0.023809
C -4.08272 1.76394 0.753058
C -4.29463 0.393212 0.798974
C -3.48101 -0.466434 0.0780125
H -1.44214 1.81328 -1.35714
H -2.88255 3.33763 -0.0730021
H -4.7201 2.43338 1.31565
H -5.10051 -0.0100628 1.39844
H -3.64961 -1.53494 0.118064
C 1.34793 0.223368 -0.50399
C 2.69101 0.582964 0.0725926
H 0.911288 0.964781 -1.17807
C 3.67367 0.794264 -1.08589
C 3.21181 -0.514142 0.996576
C 2.54019 1.89259 0.856775
H 2.16754 2.69752 0.22083
H 3.50274 2.2109 1.26217
H 1.84451 1.77728 1.68855
H 3.33217 -1.45957 0.464393
H 2.53605 -0.679777 1.83751
H 4.18558 -0.239211 1.40519
H 4.65169 1.10024 -0.709354
H 3.32537 1.57182 -1.76814
H 3.80679 -0.121094 -1.66378
