13
Coordinates from ORCA-job 2-methyl_propanal_S1_min_RI-B3LYP_TZVP_opt+freq
  C   1.21414538487018      0.31788629336177      0.01107073306656
  O   2.12461150831582      0.50914703023465     -0.88521356917961
  H   0.68982575244937      1.22056599033779      0.34367467512701
  C   0.39620224083119     -0.97070151504939     -0.04604451146920
  C   1.30705277097801     -2.20069493642124     -0.03407922350223
  C   -0.61059033337448     -0.98708444955294      1.10053583514963
  H   -0.15183044665494     -0.96314751691118     -1.00247947843472
  H   1.88154283443697     -2.24309436092619      0.89361599091030
  H   0.70289902669970     -3.10784789533508     -0.10773997302714
  H   2.00773708461107     -2.18416637898426     -0.86856473603102
  H   -0.09952901096671     -0.98624577017686      2.06496817211969
  H   -1.27675234199755     -0.12327665745667      1.06241705471598
  H   -1.22374447019866     -1.88859983312038      1.03991903055476
