10
Coordinates from ORCA-job acetone_S1_min_RI-B3LYP_TZVP_opt+freq
  C   0.41178592141538     -0.97671447524240     -0.02525118371129
  C   1.90503499493864     -1.14383943998811     -0.06444132605562
  O   2.53446243574601     -0.71956764569436      0.99944012164414
  C   2.64811510269605     -0.95384554914863     -1.35718984725578
  H   -0.00292164208048     -1.37377743198487      0.90184215519118
  H   -0.02575318667310     -1.50539961349274     -0.87185757206186
  H   0.12876092564728      0.08781612203274     -0.08901942557855
  H   2.11101374894354     -1.46987152018763     -2.15257912609524
  H   3.66100748460647     -1.35259962712502     -1.28831356828908
  H   2.72717508476020      0.11496345383101     -1.61812717078788
