11
Coordinates from ORCA-job methacrolein_S1_min_RI-B3LYP_TZVP_opt+freq
  C   0.24020210371036      0.45736739779268     -0.60085595350622
  O   0.23636317038539     -0.58593174454819      0.14688115078359
  H   0.16858514892698      1.37545411153592      0.00352241797979
  C   0.31507718390759      0.53204336636486     -1.98979597116374
  C   0.39538634867832     -0.61047386840509     -2.76113537870739
  H   0.40662979839569     -1.59724251719791     -2.32400108135384
  H   0.45297814548107     -0.53877078608103     -3.83779078104704
  C   0.31876903327355      1.90499281172438     -2.61985291606348
  H   1.28080741150972      2.11461808411544     -3.09340008542791
  H   -0.45213163779451      1.97830398003229     -3.38923034247859
  H   0.13137354652583      2.68970067666667     -1.88618056701514
