16
Coordinates from ORCA-job pivaldehyde_S1_min_RI-B3LYP_TZVP_opt+freq
  C   1.23797240321571      0.31145205937756      0.04132746919654
  O   2.19146463588856      0.48310586288317     -0.80563431948748
  H   0.67827300005516      1.21357557409061      0.31788506395657
  C   0.37501770462126     -0.97163470638162     -0.08096568726791
  C   1.29749529266834     -2.19573333949826     -0.03109917776618
  C   -0.59751417356100     -0.98089597033728      1.09907728748982
  H   1.87214264485883     -2.21243672147476      0.89586102869794
  H   0.69854900656734     -3.10822526834249     -0.08247003493591
  H   1.99708034290474     -2.19413555426784     -0.86707457586817
  H   -0.06359147808869     -0.98607321502182      2.04997426911176
  H   -1.25692319211578     -0.11093546722344      1.07595833759233
  H   -1.22115394678611     -1.87683085960572      1.05025376459798
  C   -0.39449931083271     -0.93993995627880     -1.41256859667521
  H   0.29163663001521     -0.87564602033446     -2.25678911027278
  H   -0.98904668615026     -1.85171162605916     -1.51969214810830
  H   -1.07191461326060     -0.08543437652565     -1.45308101226098
