45
Optimized S1 geometry
C                                    1.34427378        0.63547485        0.00000000
C                                    0.07492278        0.08196585     -0.19729700
C                                 -0.20143722     -1.20543215        0.26617700
C                                    0.77683278     -1.92836215        0.96167800
C                               2.05309978     -1.37855215        1.16399200
C                                    2.33106278     -0.09894015        0.65997100
S                                    0.39520478     -3.52228615        1.64013800
C                                    1.89649478     -4.41081715        1.24787000
C                                    3.16326478     -3.88729615        1.54556200
S                                    3.32187578     -2.19409415        2.11742100
C                                    1.74351578     -5.67757815        0.66307000
C                                    2.88167178     -6.45122915        0.40893400
C                                   4.13843578     -5.97356115        0.74528100
C                                    4.33188678     -4.69526415        1.33551800
C                                    5.64991278     -4.28012215        1.75818700
C                                    8.05828178     -4.35774315        1.70648100
C                                    9.36338878     -4.84127415        1.20161900
C                                    9.52814578     -6.16091315        0.78647200
C                                  10.76929278     -6.66728915        0.37462300
C                                  11.88998078     -5.85745815        0.39197900
C                                  11.76149178     -4.50802615        0.78971900
C                                  10.51260378     -3.98488515        1.17817700
S                                  13.30137778     -3.66766415        0.74023800
C                                  12.97317678     -1.97690015        0.94300700
C                                  11.69725678     -1.43835615        1.24240600
S                                  10.20971578     -2.28620915        1.57804800
C                                  14.08274578     -1.11720615        0.78632500
C                                  13.93241278        0.25179285        0.91806000
C                                  12.66509078        0.79886585        1.20836800
C                                  11.57258178     -0.03098415        1.36973200
C                                    6.84964178     -4.81113315        1.21491800
N                                    8.13643278     -3.41277615        2.70135200
C                                    6.95191178     -2.95156415        3.13659600
N                                    5.75420778     -3.32547515        2.75438400
H                                    1.57131078        1.63717485     -0.37299500
H                                 -0.69751622        0.64724485     -0.72421200
H                                 -1.18079622     -1.65965515        0.09915900
H                                    3.33215978        0.31613885        0.79943400
H                                    0.74430178     -6.03974015        0.41821000
H                                    2.77686278     -7.44500115     -0.03357000
H                                    5.00566478     -6.61913815        0.59775100
H                                    8.66275578     -6.82316215        0.81976000
H                                  10.85567178     -7.70990515        0.06261400
H                                  12.86828478     -6.24287215        0.09810700
H                                  15.05979678     -1.54683315        0.55412000
