8
Coordinates from ORCA-job acrolein_NTI_H_GS_radicals_asym_20A_opt+freq_fixed_opt+freq
  C   1.35725433564473     -7.54114315019851     -4.80377342825074
  O   3.65630667889398     -8.11092997371419     -5.24418601408145
  C   2.71857139928395     -7.39849264720513     -5.34798505054892
  H   -2.57862902277890      9.14450813626787      5.20048686863401
  H   0.80023748987401     -6.63098474095992     -4.64623235877177
  C   0.80679125085661     -8.74501266785661     -4.65851805073765
  H   1.37438889431984     -9.64180901276919     -4.85853746427252
  H   -0.22396102609422     -8.85668694356434     -4.35705450197096
