13
Coordinates from ORCA-job butanone_NTI_CH3_GS_radicals_asym_20A_opt+freq_fixed_opt+freq
  C   9.20663300000000      1.70518200000000     -2.23667500000000
  O   8.57126900000000      2.22891400000000     -1.39239400000000
  C   9.95008500000000      0.38913700000000     -2.17541200000000
  H   9.22720500000000     -0.35752000000000     -2.51049700000000
  H   10.18127000000000      0.17837300000000     -1.12964100000000
  C   -10.14814200000000     -0.59169600000000      2.24852500000000
  H   -10.30952800000000     -0.91808600000000      1.23702700000000
  H   -9.62626400000000     -1.22657800000000      2.94165400000000
  H   -10.50477200000000      0.37154100000000      2.56607000000000
  C   11.18735600000000      0.36773000000000     -3.05740000000000
  H   11.90690100000000      1.11941100000000     -2.74044500000000
  H   11.67182500000000     -0.60450000000000     -3.00765900000000
  H   10.92697300000000      0.56906500000000     -4.09365000000000
