11
Coordinates from ORCA-job methacrolein_NTI_H_GS_radicals_asym_20A_opt+freq_fixed_opt+freq
  C   0.37784320098163     -7.73196766557176     -5.32761158171789
  O   2.75171089176605     -7.67765769192357     -4.85349590124871
  C   1.79866814184000     -7.32691330916734     -5.45742544896232
  H   -1.47841734191954      9.22473169885122      5.32295818509573
  C   -0.64926767378167     -6.71715988964910     -5.71125776813417
  H   -1.65076752551672     -7.12953361767016     -5.62370255057782
  H   -0.58112550985281     -5.83746717277128     -5.07200291094894
  H   -0.49329894497760     -6.38262911292045     -6.73564948385882
  C   0.12265836517321     -8.99609833048309     -4.98817259722186
  H   0.92213576079114     -9.67632245079537     -4.73626041967917
  H   -0.88882204474066     -9.37680122389750     -4.97457839020816
