10
Coordinates from ORCA-job acetone_CAM-B3LYP_S1_min_opt+freq
  C   0.41547857555330     -0.97561312617505     -0.02734008683193
  C   1.90800783998849     -1.15115602940809     -0.05993398115085
  O   2.53030764361244     -0.73153302144295      0.99301041088913
  C   2.64463609576519     -0.95116012339646     -1.35482275932310
  H   -0.00057019108394     -1.36039791919784      0.90237697411008
  H   -0.02142787579955     -1.51319435588454     -0.86702902697077
  H   0.14220177851752      0.08675626603465     -0.10620261893033
  H   2.10829704756846     -1.46710589428774     -2.14879363683627
  H   3.65762347023948     -1.34595506465739     -1.28936702339518
  H   2.71412648563860      0.11652354141540     -1.60739519456076
