11
Coordinates from ORCA-job crotonaldehyde_CAM-B3LYP_S1_min_opt+freq
  O   0.90464063165128     -0.01516148403200      0.02529739298692
  C   2.18181594273889      0.03665343940606      0.13068777436382
  C   2.92433219129385      0.38325307271319      1.26932928298378
  C   4.27826711194910      0.41849890433254      1.32050389015476
  C   5.05272809906728      0.78361861909505      2.53694511143796
  H   2.69654894910436     -0.23774975544219     -0.80239455119874
  H   2.34371205839072      0.63539199549586      2.14964296027134
  H   4.84401097122771      0.16011452995513      0.43174223679743
  H   4.39566960516033      1.07705589486045      3.35523801730433
  H   5.73755880672122      1.61324385240845      2.34160067928809
  H   5.66828563269528     -0.05174906879250      2.88496720561028
