9
Coordinates from ORCA-job methylglyoxal_CAM-B3LYP_S1_min_opt+freq
  C   0.96343558910964     -0.08584998825215     -0.04183008003345
  C   2.47559183833461     -0.09720031783884      0.05555063662325
  O   3.04903080497322      0.43738678465039      0.99121092795440
  C   3.18730013138703     -0.76922278669724     -1.05395838781146
  O   2.61995320050493     -1.31447566180057     -1.99285036320068
  H   0.62757020402216      0.93493828908614     -0.22527290468742
  H   0.53881362985835     -0.42738076809577      0.90054322942085
  H   0.67783027597005     -0.73442689132851     -0.86831318574941
  H   4.27875151183999     -0.74219785772345     -0.96256873951608
