16
Coordinates from ORCA-job pentan-3-one_CAM-B3LYP_S1_min_opt+freq
  O   1.18372415632290     -1.04724414405804     -0.46667349224644
  C   2.15740111644550     -0.28799522079839     -0.11128566689934
  C   2.85169773800862     -0.68174001039594      1.17762584837571
  C   1.92389972239126     -0.71143031669084      2.38268801775659
  C   2.99758133428323      0.26882550143063     -1.24384510363813
  C   2.17361660402100      0.96452762847828     -2.31566475465133
  H   3.66041147552890      0.03384399455878      1.32635290410450
  H   3.30930271868523     -1.67252082982581      1.03763484395287
  H   1.45831719944653      0.26232716752523      2.53407194110307
  H   2.48281783846781     -0.96812582326720      3.28342857004171
  H   1.13228600127003     -1.44759597451792      2.25288391095859
  H   3.57041401349051     -0.55665491492810     -1.69439961389540
  H   3.71533243041398      0.95401558133222     -0.79288146588171
  H   1.48482900943912      0.26858838258335     -2.79207963489422
  H   2.82446479276878      1.37954129791940     -3.08568058819626
  H   1.58896579801660      1.77745518465435     -1.88562398499024
