      82
Mass-weighted normal mode 198 at Qy minimum; v=1642.0524cm**-1; TD-CAM-B3LYP/6-311G*
 Mg        0.007836        0.028748        0.004653
  C       -0.395808       -0.900666       -0.146081
  C       -0.049121        0.139292        0.012609
  C       -0.181207       -0.512202       -0.117641
  C        1.261279       -0.447770        0.136243
  N       -0.109194        0.074205       -0.000037
  C        0.133195        0.649103        0.085078
  C       -0.057816       -0.105032       -0.029653
  C       -0.030969        0.022482        0.004919
  C        0.157409       -0.325279       -0.027747
  C        0.002425        0.002078       -0.004503
  C       -0.007448        0.010011        0.019191
  C        0.008695       -0.000381       -0.014341
  C       -0.001767        0.014134        0.010150
  O       -0.001040       -0.005919       -0.000680
  O        0.002680       -0.005119       -0.006079
  N        0.017251        0.020507        0.005239
  C       -0.169810       -0.074374       -0.034884
  C        0.048151        0.000312        0.005543
  C       -0.000866       -0.117953       -0.016039
  C        0.192084        0.315649        0.083693
  C       -0.003395       -0.000381       -0.000173
  C       -0.023625        0.018256        0.005127
  C        0.016489        0.001455       -0.006201
  N        0.095198       -0.080305        0.004603
  C        0.090205        0.309448        0.064571
  C       -0.167559        0.135758       -0.012159
  C        0.193020       -0.275708       -0.002737
  C       -0.645501        0.474166       -0.040461
  C        0.043024       -0.008452        0.008348
  C       -0.012263        0.068520       -0.006097
  C       -0.002563        0.003222        0.001109
  N       -0.122590       -0.037720       -0.020581
  C       -1.117277        0.049086       -0.160526
  C        0.236321       -0.122525        0.013233
  C       -0.094016       -0.157062       -0.036650
  C        0.811362        0.542305        0.180757
  C       -0.037343        0.022690       -0.000935
  C        0.077561       -0.029895       -0.002667
  O       -0.060830        0.068509        0.006399
  C       -0.010046        0.114281        0.010600
  C       -0.003118       -0.027505       -0.015970
  O        0.008159        0.010518        0.003319
  O       -0.002080        0.000160        0.003839
  C       -0.000381        0.000485       -0.000312
  H        0.031001        0.026764        0.011896
  H        0.092349        0.218580        0.059953
  H       -0.484605        0.230717       -0.045336
  H        0.017849        0.076156        0.015159
  H        0.034765       -0.007670        0.016153
  H        0.008704        0.004829       -0.001556
  H        0.004809       -0.005341       -0.007369
  H       -0.002821        0.004247        0.015320
  H        0.010651       -0.004226       -0.008142
  H       -0.002590        0.004819        0.003624
  H       -0.007078        0.000171        0.003996
  H       -0.005130       -0.003765        0.001827
  H        0.010421        0.014988        0.004869
  H       -0.009808       -0.000442        0.004206
  H       -0.007529       -0.001968       -0.007118
  H       -0.016263        0.005240        0.002078
  H       -0.003313        0.003584        0.001948
  H        0.003082       -0.002610       -0.002891
  H        0.010340       -0.039664        0.021714
  H        0.018753       -0.032717       -0.031041
  H       -0.020982        0.022417       -0.002339
  H        0.040919        0.045979        0.017478
  H       -0.030539       -0.065535        0.016334
  H        0.004437       -0.006064        0.015239
  H        0.000351       -0.011354       -0.008011
  H       -0.008533       -0.001687       -0.004728
  H       -0.015711       -0.023501       -0.020640
  H       -0.017900       -0.031262        0.007559
  H        0.032506        0.075935        0.014988
  H        0.039614       -0.088896        0.004789
  H        0.001265        0.000773        0.001737
  H       -0.000863       -0.001094       -0.000442
  H       -0.001245       -0.000271        0.001917
  C       -0.001074       -0.000554        0.001351
  H       -0.000632        0.001767       -0.001064
  H       -0.000924       -0.000572        0.002128
  H        0.001516        0.001697        0.000723
