61
Cartesian (xyz) coordinates in Angstrom of GS and ES structures obtained at the LH12ct-SsirPW92/def2-TZVP(gridsize3) level of theory. T1
Ir    0.0000002   -0.0135582    0.0000001
N    -0.8081573    1.5608933    1.0466763
C    -1.8104413    3.9343901    2.2518361
C    -1.6453098    1.5048768    2.0729178
C    -2.1768195    2.6437196    2.7142893
C    -0.9539348    4.0361316    1.1910785
C    -0.4291148    2.8396501    0.5440458
H    -2.2055474    4.8233355    2.7338973
H    -1.9180133    0.5177072    2.4304881
H    -2.8533401    2.5101894    3.5518571
H    -0.6610487    5.0102314    0.8196059
N     0.8081580    1.5608938   -1.0466762
C     1.8104413    3.9343907   -2.2518358
C     1.6453063    1.5048775   -2.0729211
C     2.1768146    2.6437205   -2.7142935
C     0.9539390    4.0361317   -1.1910745
C     0.4291178    2.8396502   -0.5440433
H     2.2055477    4.8233363   -2.7338963
H     1.9180082    0.5177080   -2.4304930
H     2.8533305    2.5101906   -3.5518652
H     0.6610573    5.0102314   -0.8195983
N     0.9778280   -1.5112272   -1.0454181
C     2.4439425   -3.5402263   -2.2672415
C     0.4760806   -2.1840264   -2.0993046
C     1.1762382   -3.2009938   -2.7373946
C     2.9664326   -2.8447005   -1.1780863
C     2.2170570   -1.8298598   -0.5792484
H     3.0196062   -4.3318668   -2.7385570
H    -0.5095186   -1.8924910   -2.4403365
H     0.7286420   -3.7117172   -3.5840211
H     3.9503724   -3.0987556   -0.8030558
N     1.7872625   -0.1076718    1.0363885
C     4.2744196   -0.3693704    2.2627385
C     2.1216351    0.6669619    2.0868157
C     3.3510241    0.5662257    2.7268660
C     3.9312611   -1.1719773    1.1760509
C     2.6797828   -1.0269350    0.5741277
H     5.2460651   -0.4754828    2.7369595
H     1.3783727    1.3796739    2.4212549
H     3.5711519    1.2123976    3.5706343
H     4.6401146   -1.9023053    0.8054818
N    -1.7872609   -0.1076743   -1.0363908
C    -4.2744112   -0.3693853   -2.2627518
C    -2.1216307    0.6669542   -2.0868226
C    -3.3510328    0.5662415   -2.7268514
C    -3.9312609   -1.1719774   -1.1760507
C    -2.6797817   -1.0269365   -0.5741289
H    -5.2460206   -0.4755629   -2.7370324
H    -1.3783442    1.3796223   -2.4213019
H    -3.5712030    1.2124899   -3.5705501
H    -4.6401304   -1.9022764   -0.8054553
N    -0.9778283   -1.5112261    1.0454193
C    -2.4439453   -3.5402206    2.2672474
C    -0.4760820   -2.1840232    2.0993079
C    -1.1762346   -3.2009985    2.7373906
C    -2.9664337   -2.8446982    1.1780891
C    -2.2170570   -1.8298594    0.5792493
H    -3.0196206   -4.3318420    2.7385806
H     0.5095076   -1.8924719    2.4403539
H    -0.7286226   -3.7117477    3.5839932
H    -3.9503714   -3.0987567    0.8030556
