61
Cartesian (xyz) coordinates in Angstrom of GS and ES structures obtained at the LH12ct-SsirPW92/def2-TZVP(gridsize3) level of theory. S0
Rh    0.0000000    0.0023713    0.0000000
N    -0.8081579    1.5873714    1.0473889
C    -1.8320271    3.8704108    2.2628303
C    -1.6417082    1.4884451    2.0982066
C    -2.1733009    2.6044644    2.7353863
C    -0.9678501    3.9737082    1.1736298
C    -0.4630828    2.8158373    0.5775299
H    -2.2300452    4.7657985    2.7321379
H    -1.8851040    0.4897357    2.4387062
H    -2.8403036    2.4734895    3.5814873
H    -0.6966647    4.9522556    0.7965956
N     0.8081579    1.5873714   -1.0473889
C     1.8320271    3.8704108   -2.2628303
C     1.6417082    1.4884451   -2.0982066
C     2.1733009    2.6044644   -2.7353863
C     0.9678501    3.9737082   -1.1736298
C     0.4630828    2.8158373   -0.5775299
H     2.2300453    4.7657985   -2.7321379
H     1.8851040    0.4897357   -2.4387062
H     2.8403035    2.4734895   -3.5814874
H     0.6966647    4.9522556   -0.7965956
N     0.9658313   -1.4889307   -1.0509470
C     2.4321545   -3.5093939   -2.2782564
C     0.4638769   -2.1552715   -2.1057722
C     1.1649264   -3.1699284   -2.7486473
C     2.9536097   -2.8183298   -1.1853312
C     2.2024957   -1.8063596   -0.5830953
H     3.0092298   -4.2984427   -2.7523449
H    -0.5217535   -1.8638192   -2.4467216
H     0.7182820   -3.6773112   -3.5977695
H     3.9375223   -3.0734293   -0.8109372
N     1.7767504   -0.0930216    1.0447671
C     4.2589847   -0.3656085    2.2702726
C     2.1075273    0.6732055    2.0994691
C     3.3366129    0.5670102    2.7415066
C     3.9164790   -1.1604421    1.1771949
C     2.6651146   -1.0094709    0.5757126
H     5.2304561   -0.4759677    2.7440366
H     1.3655887    1.3849060    2.4397151
H     3.5562072    1.2063760    3.5905721
H     4.6254365   -1.8884525    0.8022550
N    -1.7767504   -0.0930216   -1.0447671
C    -4.2589847   -0.3656086   -2.2702726
C    -2.1075273    0.6732055   -2.0994691
C    -3.3366130    0.5670102   -2.7415066
C    -3.9164790   -1.1604421   -1.1771949
C    -2.6651146   -1.0094709   -0.5757126
H    -5.2304559   -0.4759680   -2.7440369
H    -1.3655886    1.3849058   -2.4397152
H    -3.5562073    1.2063763   -3.5905718
H    -4.6254366   -1.8884524   -0.8022549
N    -0.9658313   -1.4889307    1.0509471
C    -2.4321545   -3.5093939    2.2782564
C    -0.4638769   -2.1552715    2.1057723
C    -1.1649264   -3.1699284    2.7486473
C    -2.9536097   -2.8183298    1.1853312
C    -2.2024957   -1.8063596    0.5830953
H    -3.0092299   -4.2984427    2.7523450
H     0.5217535   -1.8638192    2.4467217
H    -0.7182820   -3.6773113    3.5977694
H    -3.9375223   -3.0734293    0.8109372
