61
Cartesian (xyz) coordinates in Angstrom of GS and ES structures obtained at the LH12ct-SsirPW92/def2-TZVP(gridsize3) level of theory. T1
Zn   -0.0021260   -0.0027821   -0.0027556
N     0.7091421    1.1925055    1.7038199
C     1.5979049    2.5044721    4.0639167
C     1.4259965    2.2913913    1.6439521
C     1.9112601    3.0003355    2.7753559
C     0.8559514    1.3592884    4.1714371
C     0.4015225    0.6561805    2.9714715
H     1.9414357    3.0249014    4.9523336
H     1.6475997    2.6709189    0.6490374
H     2.4986723    3.9008090    2.6355909
H     0.6106652    0.9683024    5.1499811
N    -0.6632183   -1.1249783    1.7699172
C    -1.4846706   -2.3397409    4.2054095
C    -1.3789046   -2.2264115    1.7750858
C    -1.8313330   -2.8889047    2.9473872
C    -0.7428081   -1.1900513    4.2452948
C    -0.3219765   -0.5369241    3.0056417
H    -1.8030966   -2.8232403    5.1235507
H    -1.6272070   -2.6467966    0.8031232
H    -2.4202008   -3.7950665    2.8606534
H    -0.4723122   -0.7585120    5.1998459
N    -1.0885899   -1.2246769   -1.5160402
C    -2.4457136   -2.4035881   -3.6388794
C    -0.5517861   -2.2497157   -2.1916678
C    -1.1933041   -2.8779563   -3.2550065
C    -3.0086846   -1.3380404   -2.9397717
C    -2.3076672   -0.7716014   -1.8686002
H    -2.9784717   -2.8515790   -4.4725292
H     0.4304904   -2.5783890   -1.8669867
H    -0.7178998   -3.7077814   -3.7671042
H    -3.9741141   -0.9516232   -3.2413047
N    -1.9863024    0.9833123   -0.2361387
C    -4.6294594    1.8402645   -0.3652498
C    -2.4129473    2.0126600    0.5075997
C    -3.7220937    2.4839061    0.4733145
C    -4.1914935    0.7680350   -1.1397195
C    -2.8531322    0.3656304   -1.0620528
H    -5.6653738    2.1625683   -0.4152415
H    -1.6756089    2.4756876    1.1558798
H    -4.0168963    3.3245948    1.0923135
H    -4.8935815    0.2498047   -1.7805893
N     1.9765897   -0.9953950   -0.2497694
C     4.6165999   -1.8568582   -0.4114868
C     2.4222743   -1.9963853    0.5210969
C     3.7305068   -2.4688068    0.4723001
C     4.1588868   -0.8141329   -1.2143206
C     2.8224058   -0.4091292   -1.1192331
H     5.6513015   -2.1807359   -0.4746946
H     1.7014209   -2.4351193    1.2038745
H     4.0408578   -3.2862665    1.1143786
H     4.8446960   -0.3197419   -1.8906609
N     1.0458298    1.1628194   -1.5896570
C     2.3496446    2.2611595   -3.7878124
C     0.4915616    2.1614396   -2.2901833
C     1.1063828    2.7494061   -3.3916646
C     2.9306255    1.2227275   -3.0630331
C     2.2564333    0.6970295   -1.9545114
H     2.8614394    2.6775636   -4.6504705
H    -0.4830101    2.5017283   -1.9543731
H     0.6179058    3.5594523   -3.9227865
H     3.8885709    0.8249657   -3.3735179
