53
Complex 2 M,A-Cl
Re -0.011716 -0.042965 0.037167
Cl 0.927965 -0.383823 2.343124
C -0.658257 0.161018 -1.737726
O -1.064299 0.283337 -2.812680
C -1.815222 -0.226246 0.647460
O -2.900771 -0.347050 1.013636
C -0.150131 1.890796 0.317652
O -0.228156 3.026246 0.461309
N 2.116944 -0.093902 -0.530924
C 2.890603 0.992135 -0.635140
H 2.385591 1.945299 -0.559155
C 4.254448 0.921658 -0.821108
H 4.833726 1.831215 -0.903932
C 4.847477 -0.329544 -0.870781
H 5.920053 -0.431150 -0.981924
C 4.060294 -1.460931 -0.767122
H 4.510792 -2.439518 -0.767138
C 2.691900 -1.302314 -0.624727
N 1.793990 -2.365016 -0.529699
C 0.489838 -2.089058 -0.224650
N -0.134816 -3.267102 -0.147319
C -1.585617 -3.366511 -0.152658
H -1.974245 -2.575098 -0.789117
H -1.870557 -4.329227 -0.568113
H -1.993487 -3.270629 0.850957
C 0.757205 -4.316801 -0.367036
C 0.571299 -5.717062 -0.368797
C -0.492877 -6.441185 0.267969
C -1.188738 -5.979273 1.442032
C -0.696512 -4.951832 2.272557
H 0.251739 -4.483631 2.044543
C -1.383317 -4.547161 3.390017
H -0.976230 -3.757254 4.010691
C -2.601671 -5.151196 3.732355
H -3.149919 -4.811924 4.603461
C -3.069501 -6.202304 2.985264
H -3.979871 -6.719308 3.269648
C -2.360071 -6.663145 1.859520
C -2.755700 -7.852786 1.188115
H -3.662949 -8.353348 1.508805
C -1.961812 -8.397656 0.233405
H -2.205031 -9.357343 -0.209445
C -0.789968 -7.727420 -0.216081
C 0.109496 -8.377212 -1.104156
H -0.131245 -9.380313 -1.438691
C 1.285369 -7.794012 -1.448856
H 2.021283 -8.328425 -2.039174
C 1.550802 -6.442315 -1.100589
C 2.746294 -5.817486 -1.517805
H 3.480304 -6.417758 -2.042895
C 3.003878 -4.492513 -1.281323
H 3.935563 -4.059470 -1.610345
C 1.974011 -3.736804 -0.708758
