53
Complex 2 P,C-I
Re 0.052521 -0.102696 -0.060554
I -0.263203 -0.596836 2.728906
C 0.248546 0.182060 -1.929166
O 0.388970 0.355162 -3.061741
C 0.252612 1.814369 0.290276
O 0.363441 2.937738 0.492744
C 1.949941 -0.298906 0.100445
O 3.090850 -0.417643 0.200415
N -2.149232 -0.140753 -0.107324
C -2.921909 0.943665 0.029402
H -2.407176 1.894094 0.057254
C -4.293252 0.873543 0.139745
H -4.870905 1.781815 0.244976
C -4.891483 -0.376793 0.137131
H -5.963234 -0.479463 0.254716
C -4.107507 -1.505282 -0.006625
H -4.551707 -2.486305 0.025917
C -2.739217 -1.345263 -0.152775
N -1.848641 -2.403722 -0.313173
C -0.506645 -2.137114 -0.272590
N 0.112025 -3.317679 -0.369575
C 1.531511 -3.416149 -0.666120
H 1.788467 -2.613473 -1.353379
H 1.725593 -4.371120 -1.146273
H 2.130769 -3.337306 0.238329
C -0.813503 -4.359024 -0.442439
C -2.070237 -3.767526 -0.505491
C -3.200578 -4.498986 -0.887802
H -4.175707 -4.052178 -1.003238
C -3.006361 -5.812818 -1.225784
H -3.835876 -6.391229 -1.615756
C -1.756056 -6.453169 -1.084159
C -1.577123 -7.789606 -1.532373
H -2.420759 -8.299513 -1.984039
C -0.361196 -8.386828 -1.453761
H -0.201052 -9.375629 -1.869290
C 0.702920 -7.774694 -0.737479
C 1.933043 -8.465990 -0.554793
H 2.074120 -9.407351 -1.074811
C 2.904251 -7.963647 0.246958
H 3.850784 -8.480175 0.363782
C 2.661380 -6.801214 1.029366
C 3.582099 -6.391302 2.012897
H 4.523165 -6.925065 2.093967
C 3.282347 -5.369532 2.877762
H 3.993596 -5.069954 3.638619
C 2.029561 -4.744085 2.802013
H 1.761147 -3.977384 3.519763
C 1.133356 -5.098571 1.824749
H 0.165751 -4.615081 1.805010
C 1.439591 -6.095497 0.875912
C 0.520529 -6.508372 -0.154284
C -0.642978 -5.758066 -0.536871
