87
Cartesian coordinates of the optimized triplet state structure T1 of mer,cis-[tris(trimethylphosphine)chlorido-2,5-bis(p-carbomethoxy-phenylethynyl)-cyclohexa[1',2':3,4]iridacyclopenta-2,4-diene] (3-Me).
C         -8.12729        0.54342       -0.14043
C         -7.26425       -0.56477       -0.03252
C         -5.88750       -0.38870       -0.03851
C         -5.32743        0.91321       -0.15335
C         -6.20739        2.02306       -0.26266
C         -7.58176        1.83583       -0.25567
C         -3.93101        1.07568       -0.15421
C         -2.68657        1.12603       -0.14107
C         -1.31707        1.12437       -0.11852
Ir        -0.16386       -0.57363        0.04668
Cl        -2.15112       -2.15638        0.16435
C         -9.60248        0.40796       -0.13825
O        -10.38383        1.33720       -0.22823
C         -0.54793        2.35098       -0.21602
C          0.81335        2.20180       -0.18162
C          1.66653        3.43352       -0.29497
C          1.12423        4.55230        0.61603
C         -0.40533        4.76880        0.49667
C         -1.11942        3.72759       -0.39327
C          1.30930        0.82650       -0.05808
C          2.67092        0.63733       -0.04676
C          3.91632        0.55029       -0.05314
C          5.32191        0.52941       -0.07528
C          6.06152       -0.68182        0.02111
C          7.44879       -0.67457       -0.00593
C          8.15664        0.53666       -0.12942
C          7.43768        1.74400       -0.22531
C          6.05228        1.74606       -0.19929
C          9.63490        0.59779       -0.16411
O         10.28317        1.62276       -0.26985
P         -0.25298       -0.22724        2.38709
C         -1.40712       -1.29348        3.35125
C          1.36729       -0.34614        3.27143
C         -0.80919        1.44453        2.93761
P          1.03172       -2.67669        0.22930
C          2.88003       -2.72718        0.19962
C          0.67236       -3.71100        1.72691
C          0.61464       -3.96585       -1.03842
P         -0.18793       -0.61833       -2.32222
C         -0.61943        0.97158       -3.15553
C         -1.39602       -1.76347       -3.11205
C          1.42696       -0.98125       -3.15032
H         -0.99827        4.02114       -1.44872
H         -2.19769        3.73085       -0.19790
H          1.66389        3.78605       -1.33965
H          2.71048        3.21458       -0.04615
H          1.65981        5.48482        0.39865
H          1.37593        4.29078        1.65150
H         -0.85369        4.73221        1.49676
H         -0.62005        5.77034        0.10414
H          5.52765       -1.62398        0.11687
H          5.50329        2.68230       -0.27591
H          7.99992       -1.60867        0.06845
H          7.99562        2.67313       -0.32082
H         -5.21133       -1.23730        0.04470
H         -5.78788        3.02308       -0.35173
H         -7.68530       -1.56307        0.05628
H         -8.26262        2.68030       -0.33850
H          1.24041       -0.16150        4.34452
H          1.82609       -1.32870        3.13072
H          2.04669        0.40276        2.85118
H         -0.15541        2.21474        2.52035
H         -1.83001        1.62562        2.58911
H         -0.78214        1.49418        4.03275
H          1.20899       -4.66453        1.65579
H          0.97564       -3.21231        2.65127
H         -0.40467       -3.90314        1.75673
H         -1.41765       -0.97867        4.40155
H         -2.40556       -1.18999        2.91583
H         -1.12735       -2.34626        3.28536
H          0.91101       -3.66235       -2.04585
H          1.12697       -4.90439       -0.79594
H         -0.46808       -4.12372       -1.01433
H          3.28012       -2.13219        1.02612
H          3.23770       -3.76086        0.28219
H          3.24784       -2.28410       -0.73066
H         -1.34191       -1.67578       -4.20373
H         -1.21121       -2.79623       -2.81114
H         -2.39735       -1.49567       -2.76161
H          2.17062       -0.26019       -2.79503
H          1.78657       -1.98522       -2.90999
H          1.32891       -0.89430       -4.23878
H         -1.62406        1.28511       -2.85848
H          0.09240        1.75008       -2.86777
H         -0.58649        0.83106       -4.24246
O        -10.00584       -0.87598       -0.02410
C        -11.41936       -1.06231       -0.01673
