74
(MePMPMe)3HfCl, Optimized Geometries
Hf -0.06291871610761 -0.05050691252876 -0.04687357906277
Cl -0.04144202272129 -0.09591036958535 2.41511290327393
 N 1.69845249536030 -0.97138971508531 -1.08669321344664
 N 1.89471597788729 1.11851012877342 0.54961670104881
 N -0.87983269778248 -2.13009954902413 0.06218559278408
 N -1.41596582424590 -0.50739569768884 -1.97949432485674
 N -0.44227298270834 1.99260283037731 -0.87160418549860
 N -2.28802397833450 0.62649955970544 0.51181581478350
 C 1.90153428059535 -2.01781807418644 -1.95730463966437
 C 3.25921932378059 -2.25453139173878 -2.10052235665115
 C 3.95983596133905 -1.33699756743616 -1.30252199717481
 C 2.97952291507791 -0.55296630794463 -0.69112064642903
 C 3.07912480773016 0.57166337004708 0.18176497307869
 C 4.28381490217427 1.14328518426324 0.64119284935644
 C 4.24727827065997 2.27006385960504 1.42956232277012
 C 3.01678360647822 2.83740051219771 1.77161922130384
 C 1.87430482709524 2.21790406237149 1.31707722634528
 C 5.45197985471730 -1.27406708687039 -1.18775605860846
 C 0.83780397705702 -2.78818695468384 -2.66392847443361
 C -0.66534883544625 -3.20223454900144 0.87875404857540
 C -1.60901380872561 -4.18964073784843 0.60689343126934
 C -2.43535090292484 -3.73876390358554 -0.43191716363777
 C -1.95213229572881 -2.46409221079939 -0.76518097127120
 C -2.22992326671775 -1.59778188519356 -1.86327818442549
 C -3.23042956568868 -1.83235258662506 -2.82812773268028
 C -3.34586351591616 -1.00009947330342 -3.91708260746886
 C -2.47397442679122 0.08186268730825 -4.04947927776474
 C -1.54788612736465 0.29279609470935 -3.05023463828779
 C -3.55309655705657 -4.53111422606995 -1.03764928389764
 C 0.45402556212387 -3.30938231026180 1.86029419395735
 C 0.26280512184519 2.83367551832495 -1.69177960172360
 C -0.51485706245899 3.94283901915705 -1.99595701468954
 C -1.75535152983576 3.80547377664117 -1.35104219886656
 C -1.69016650298451 2.58378576490177 -0.67174673256642
 C -2.66361975423429 1.86480951263485 0.09888729726765
 C -3.93874550540305 2.35684754173470 0.43577057579988
 C -4.80100765598423 1.57625320985885 1.17433192600180
 C -4.39818523513450 0.30785319403518 1.59022792679708
 C -3.13213888603866 -0.11578925803103 1.24213912003351
 C -2.87260457336244 4.80016067702971 -1.43481204849507
 C 1.64545129620107 2.57430077032304 -2.20024644763533
 H 3.69679095990045 -3.01711744318091 -2.72753279403195
 H 5.22701793071234 0.70024006993644 0.36857405052842
 H 5.17109904600442 2.71434013919882 1.77964876236984
 H 2.94747694895775 3.72473442391714 2.38418832880585
 H 0.89598394697684 2.60087142467939 1.57072860730946
 H 5.85567774494746 -0.31859811276512 -1.53535633771986
 H 5.90459872184550 -2.05765698997315 -1.79633474070880
 H 5.79613942214075 -1.42066200762895 -0.16009791109864
 H 0.18256696935292 -3.31768311076988 -1.97231870648380
 H 1.31059900846386 -3.52561089205829 -3.31301288866936
 H 0.21125391868908 -2.14859220717033 -3.28713884728319
 H -1.66926973669936 -5.15044728019632 1.09643542274435
 H -3.89625732603169 -2.67127157644871 -2.71105599863660
 H -4.10871652733273 -1.18665973997731 -4.66324342987846
 H -2.52304620011615 0.75706120215028 -4.89170155097744
 H -0.88398999295024 1.14323764474972 -3.09320526003664
 H -4.51130355991477 -4.00646081419140 -0.98724722285510
 H -3.67121568508227 -5.47521171355877 -0.50461804396721
 H -3.36816961627701 -4.77273701152387 -2.08880367732726
 H 1.39222653002879 -2.94243131110447 1.43902232132910
 H 0.59196384237020 -4.35494586993463 2.13833774649183
 H 0.26399222357811 -2.73327721848433 2.76694523287273
 H -0.21257499291473 4.76785551658896 -2.62422223588655
 H -4.23360259338740 3.34442934723996 0.12186621852185
 H -5.78265300393592 1.95337409701307 1.43445284695651
 H -5.04099212398468 -0.33114007060260 2.17873117499764
 H -2.76032419141642 -1.07980271301776 1.55749892371908
 H -3.78756641280250 4.36432874684234 -1.84612909781367
 H -2.58586597993553 5.62770657756400 -2.08480515998343
 H -3.12378583715426 5.22664620222084 -0.45930902397472
 H 2.41164754750399 2.88809757603600 -1.48722308025759
 H 1.80491991715061 3.14131288735765 -3.11836928435325
 H 1.81988815288690 1.52035372258483 -2.42049709191340
