7
Coordinates from ORCA-job acetaldehyde_TD-B3LYP_S1_NTIb_TS_opt+freq
  H   -1.44481920088646     -1.01809923886695     -0.42748868280240
  C   -1.16296688212294     -0.07845201906441      0.06829891189459
  H   -1.76865602920965      0.71448948110890     -0.36651631913131
  H   -1.37534699473807     -0.16134172164241      1.14152720577270
  O   1.42280747950729     -0.05321026546273     -0.08557636464350
  C   0.27360347296740      0.12427778909304     -0.33087251304840
  H   0.02233315448244      1.42069797483456      0.66613976195833
