8
Coordinates from ORCA-job acrolein_TD-B3LYP_S1_NTIb_TS_opt+freq
  C   -1.10064334129421     -0.27578192677508     -0.04089749589607
  O   1.35090707995268      0.09811461760526     -0.21617226447640
  C   0.20745728396758      0.05821215828119     -0.02803465488347
  H   0.08478989009568      1.62029046760700      0.88564271349164
  C   -1.54231346651937     -1.43857098636719     -0.69245092431262
  H   -1.76294940951616      0.34963596581852      0.53325937535332
  H   -2.56960889272439     -1.74075400613791     -0.58311406217482
  H   -0.87375514396181     -2.06839529003177     -1.25636868710159
