13
Coordinates from ORCA-job butanone_TD-B3LYP_S1_NTIb_TS_opt+freq
  C   -1.16749955591919      0.52872286936324     -0.16873032720503
  O   -1.30246192789504     -0.41929784015384     -0.87998319941778
  H   0.88009507281596      1.42279722938202     -0.98561057933090
  C   0.98018450854956      0.68037530729021     -0.19874119065020
  H   1.21134026000799     -0.32604491866609     -0.51743792783899
  H   1.44353788410546      1.01800099540348      0.71969429445459
  C   -1.18377093289430      1.13496639542445      1.19040796319291
  H   -0.62673205096616      0.54525524246220      1.94077362972133
  H   -0.71441980105499      2.11461060882396      1.13287517920662
  C   -2.64684832569260      1.27741692369781      1.64495953769275
  H   -3.19698073474578      1.94720596162988      0.98524069819032
  H   -3.14832598468995      0.30929216716449      1.65306436581446
  H   -2.66070241162096      1.67660805817819      2.66159855616992
