11
Coordinates from ORCA-job crotonaldehyde_TD-B3LYP_S1_NTIb_TS_opt+freq
  C   -1.03752634316604     -0.49463324407862      0.09738202732159
  O   1.11613114494049      0.53849481250416     -0.58450601787520
  C   0.12619248623177      0.14458356608026     -0.12041686278599
  H   0.25770518626553      1.03969979687356      1.44391390176466
  C   -1.56321644167678     -1.40367728189164     -0.84631552653007
  H   -1.55503034892382     -0.25977181515899      1.01287847576804
  H   -0.99165706419682     -1.63478379298858     -1.73409328719443
  C   -2.94127129223689     -1.94035945508175     -0.72150005024366
  H   -2.99309559664955     -2.99227128896616     -1.01679854141023
  H   -3.31634344546495     -1.85528068848228      0.30036977849233
  H   -3.65464828512294     -1.40534260880996     -1.36827889730705
