9
Coordinates from ORCA-job methylglyoxal_TD-B3LYP_S1_NTIb_TS_opt+freq
  C   -1.00250456734677     -0.41579653167324     -0.00202177934042
  O   1.01202873299138      0.35737303177608     -1.11888171983762
  C   0.43804390778690     -0.08421954537397     -0.12792793982998
  H   0.98036236118418     -0.28029121531054      0.81073018607766
  O   -1.83280905838472     -0.28726394551739     -0.89505192848911
  C   -1.42028836651446     -0.96154426361678      1.36449146670225
  H   -2.49090128954296     -1.14464265124051      1.36780031927187
  H   -0.88622186275556     -1.89242364935563      1.55972247515579
  H   -1.16636885741798     -0.23435722968802      2.13636492028956
