16
Coordinates from ORCA-job petan-2-one_TD-B3LYP_S1_NTIb_TS_opt+freq
  C   -1.13469715506227      0.37530154677500      0.04221263890635
  O   -1.20678660882726     -0.72289330930277     -0.41961647672216
  H   0.76604398351165      1.13893869215328     -1.17869011794252
  C   0.97477768711099      0.70371187374918     -0.20577389858664
  H   1.29777968904072     -0.32775672337833     -0.20329318697220
  H   1.43938306686505      1.35927263977776      0.51955747002450
  C   -1.11954206257207      1.27258663429750      1.23141435079360
  H   -0.42517984313670      0.94176515385452      2.02584056329409
  H   -0.80437219798640      2.26157244324431      0.90610141949130
  C   -2.54376066397943      1.34802140169192      1.82369878239414
  H   -3.22098524948611      1.75477761389309      1.07041699283791
  H   -2.49083583991060      2.06851996893269      2.64596068567068
  C   -3.05792371521636      0.01043447654156      2.34081244170107
  H   -4.03688915610369      0.12618947676439      2.80868998856312
  H   -3.15733724314744     -0.71621182767930      1.53262609056568
  H   -2.37786869110007     -0.40782506131479      3.08708425598106
