16
Coordinates from ORCA-job pivaldehyde_TD-B3LYP_S1_NTIb_TS_opt+freq
  C   -1.19122351502386     -0.04717429581192      0.06932816123140
  O   1.41733903977093     -0.25363471148785      0.10130008604452
  C   0.31621019977762      0.02871203222899     -0.23547425259302
  H   0.11518788010092      1.35680274971700      0.83781074552990
  C   -1.55133792504606     -1.38613772634778     -0.63930079185917
  H   -1.33364525007669     -1.33488201083095     -1.70429478305872
  H   -1.00052349704647     -2.22206049967503     -0.20685268606220
  H   -2.61790984846185     -1.56834946372970     -0.49754145381278
  C   -1.94263823200622      1.09413635219812     -0.61717220668024
  H   -1.65531691089927      1.17690158598709     -1.66522957709851
  H   -3.01188576510883      0.88530979909382     -0.56852693258806
  H   -1.75372508786813      2.04542220524804     -0.12157538709770
  C   -1.57669162527812     -0.17114119183985      1.55491019762339
  H   -2.60993295154565     -0.51961833423523      1.64734719090160
  H   -0.93077976859009     -0.88811735295144      2.06321500489178
  H   -1.47878674269825      0.79055686243668      2.05629968462781
